<?xml version="1.0" encoding="UTF-8"?>

<!-- generated on 2024-11-12 15:28:00 by Eclipse SUMO duarouter Version v1_21_0+0546-c8b591674a3
<duarouterConfiguration xmlns:xsi="http://www.w3.org/2001/XMLSchema-instance" xsi:noNamespaceSchemaLocation="http://sumo.dlr.de/xsd/duarouterConfiguration.xsd">

    <input>
        <net-file value="erlangen.net.xml"/>
        <route-files value="erlangen.trips.xml"/>
    </input>

    <output>
        <output-file value="erlangen.rou.xml"/>
    </output>

</duarouterConfiguration>
-->

<routes xmlns:xsi="http://www.w3.org/2001/XMLSchema-instance" xsi:noNamespaceSchemaLocation="http://sumo.dlr.de/xsd/routes_file.xsd">
    <vehicle id="0" type="krauss_0.5" depart="0.00">
        <route edges="31241838#1 31241816#1 31241851#0 31241851#1 31241851#2 -31255203#0 -4006702#0 4319352#1 44069041#0 44069041#1 4400949 31982182#0 4047241 4797872 4797871 -15259223"/>
    </vehicle>
    <vehicle id="1" type="krauss_0.5" depart="5.00">
        <route edges="-4006674#1 4006674#1 4006674#2 4006674#3 4006674#4 4006687 32270595 -32302591#5"/>
    </vehicle>
    <vehicle id="2" type="krauss_0.5" depart="10.00">
        <route edges="37591481 -113939241 113939244#0 -25398494#0 -31401017#2 31401017#2"/>
    </vehicle>
    <vehicle id="3" type="krauss_0.5" depart="15.00">
        <route edges="4047378 4006724#1 4006724#2 -3998612#1 -3998612#0 3998613#0 3998613#1 3998613#2 -31353573#1 -31353573#0 -33174302#1 -33174302#0 -32270595 8402997 8402998#1 8402998#2 29900564#1 29900564#2 -29900564#2"/>
    </vehicle>
    <vehicle id="4" type="krauss_0.5" depart="20.00">
        <route edges="-94344940#0 28768072 -28613737 4006702#1 4900043 4900041#1 -23350929"/>
    </vehicle>
    <vehicle id="5" type="krauss_0.5" depart="25.00">
        <route edges="-35842306#1 35842306#1 4047446#0 4047446#1 25472079 30405352 30350445 -33174302#1 -33174302#0 -32270595 -29900561#1 -29900561#0 -8403001 -4006674#4 23605600#1 23605600#2"/>
    </vehicle>
    <vehicle id="6" type="krauss_0.5" depart="30.00">
        <route edges="-23341293 -10425128#0 -4006693#2 -4006693#1 -4006693#0 -31401017#2 -31401017#1 -31401017#0 -29900567 -31401018 -4047532 -32270592#1"/>
    </vehicle>
    <vehicle id="7" type="krauss_0.5" depart="35.00">
        <route edges="31241851#2 -31255203#0 28613737 94344941 28768072"/>
    </vehicle>
    <vehicle id="8" type="krauss_0.5" depart="40.00">
        <route edges="-37591481 37591481 -113939241 113939244#0 113939244#1 113939244#2 -126606716 23339459 30405358#1 85355912 85355911#0 85355911#1 30405356 25472079 30405352 30350445"/>
    </vehicle>
    <vehicle id="9" type="krauss_0.5" depart="45.00">
        <route edges="4006688#0 4006688#1 4006688#2 4006688#3 4006688#4 29900564#0 29900564#1 8403007 -23341293 -10425128#0"/>
    </vehicle>
    <vehicle id="10" type="krauss_0.5" depart="50.00">
        <route edges="4006684 -32302591#2 -32302591#1 -32302591#0 4006672 32270593 32270592#0"/>
    </vehicle>
    <vehicle id="11" type="krauss_0.5" depart="55.00">
        <route edges="-4006705#1 4006703#1 28269598 -4006702#2 -4006702#1 31255203#0 31255203#1 31241838#0 -31241853#1 -31241853#0"/>
    </vehicle>
    <vehicle id="12" type="krauss_0.5" depart="60.00">
        <route edges="5445204#2 5445204#3 23570844#2 10419402 4006693#2 4006693#3 4006693#4 -4006693#4"/>
    </vehicle>
    <vehicle id="13" type="krauss_0.5" depart="65.00">
        <route edges="-29900567 29900567 31401017#0 4006688#0 4006688#1 4006688#2 4006688#3 4006688#4 29900561#0 29900561#1 8402997 -8402998#0 -29900565#2 -29900565#1 -29900565#0"/>
    </vehicle>
    <vehicle id="14" type="krauss_0.5" depart="70.00">
        <route edges="4006702#1 -4006702#1 -4006702#0 -3013106#2 3998615#0 3998615#1 3998643#2 30350450#2"/>
    </vehicle>
    <vehicle id="15" type="krauss_0.5" depart="75.00">
        <route edges="4006687 32270595 33174302#0 33174302#1 4686970#0 4686970#1 122161381 30350448 30350449 4047309 30751813 -35842306#1 -35842306#0 35842306#0"/>
    </vehicle>
    <vehicle id="16" type="krauss_0.5" depart="80.00">
        <route edges="28613727#1 -94344940#0 28768072 -28613737 -4006702#0 4319352#1 44069041#0 44069041#1 25472079 30405352 30350445 -33174302#1 -33174302#0 -32270595 -29900561#1 -29900561#0 29900564#0 8402998#3"/>
    </vehicle>
    <vehicle id="17" type="krauss_0.5" depart="85.00">
        <route edges="-4690348 4900739#2 4900741 35842306#0 35842306#1 4047446#0 4047446#1 25472079 30405352 30350445 -33174302#1 -33174302#0 -32270595 -29900561#1 -29900561#0 29900564#0"/>
    </vehicle>
    <vehicle id="18" type="krauss_0.5" depart="90.00">
        <route edges="4006693#0 -23605595 -8403007 -29900564#1 -8402998#2 -8402998#1 -8402997 32270595 33174302#0 33174302#1 4686970#0 4686970#1 122161381 30350448 8364476 30350450#0 30350450#1 30350450#2 4006702#0 31255203#0 31255203#1 31241838#0 -31241853#1 -31241855#1 31241816#0"/>
    </vehicle>
    <vehicle id="19" type="krauss_0.5" depart="95.00">
        <route edges="4006705#2 -4006705#2 -4006705#1 4006703#1 28269598 -4006702#2 -4006702#1 -4006702#0 -3013106#2 -3013106#1 -3013106#0 3013106#0"/>
    </vehicle>
    <vehicle id="20" type="krauss_0.5" depart="100.00">
        <route edges="32271499 41973977 -31353573#1 -31353573#0 -33174302#1 -33174302#0 -32270595 -29900561#1 -29900561#0 -8403001 -4006674#4 -23605600#0"/>
    </vehicle>
    <vehicle id="21" type="krauss_0.5" depart="105.00">
        <route edges="-3998612#1 -3998612#0 3998613#0 3998613#1 3998613#2 -31353573#1 4006673 -32302591#4 -32302591#3 -4006684 -4006674#2"/>
    </vehicle>
    <vehicle id="22" type="krauss_0.5" depart="110.00">
        <route edges="-29900564#5 -29900564#4 -29900564#3 -29900564#2 -29900564#1 -8402998#2 -8402998#1 -8402997 32270595 33174302#0 33174302#1 4686970#0 4686970#1 122161381 30350448 30350449 4047309 30751813 -35842306#1 -35842306#0"/>
    </vehicle>
    <vehicle id="23" type="krauss_0.5" depart="115.00">
        <route edges="-3013107 3013107 3013106#1 3998615#0 3998615#1 3998615#2 3998615#3 3998645#2 -3998645#2"/>
    </vehicle>
    <vehicle id="24" type="krauss_0.5" depart="120.00">
        <route edges="31241835#1 31241834#0 31241848 31241851#0 31241851#1 31241851#2 -31255203#0 -4006702#0 -3013106#2 -3013106#1 -3013106#0 -3998612#2 -4006724#2 4872369 -4006725#0"/>
    </vehicle>
    <vehicle id="25" type="krauss_0.5" depart="125.00">
        <route edges="-4099270#1 -4099270#0 4006726#2 -3998645#0 -3998612#0 -32282774"/>
    </vehicle>
    <vehicle id="26" type="krauss_0.5" depart="130.00">
        <route edges="-4006668 4006668 23339459 30405358#1 85355912 85355911#0 85355911#1 30405356 5931612 30350450#0 -3998645#2 -3998645#1 -3998645#0 3998612#1 -4006724#2 4872369"/>
    </vehicle>
    <vehicle id="27" type="krauss_0.5" depart="135.00">
        <route edges="31241851#2 -31255203#0 -4006702#0 4319352#1 44069041#0 44069041#1 4400949 31982182#0 4047241 4797872 4797871 4006668 23339459 30405358#1 85355912 85355911#0 85355911#1 30405356"/>
    </vehicle>
    <vehicle id="28" type="krauss_0.5" depart="140.00">
        <route edges="-31401018 31401018 29900567 31401017#0 4006688#0 4006688#1 4006688#2 4006688#3 4006688#4 29900561#0 29900561#1 32270595 33174302#0 33174302#1 4686970#0 4686970#1 122161381 30350448 30350449 4047309 30751813 -35842306#1 -35842306#0 35842306#0"/>
    </vehicle>
    <vehicle id="29" type="krauss_0.5" depart="145.00">
        <route edges="-31401017#0 31401017#0 4006688#0 4006688#1 4006688#2 4006688#3 4006688#4 29900561#0 29900561#1 32270595 33174302#0 33174302#1 4686970#0 25472257 -30357194 3998612#0 3998612#1 -4006724#2 -4006724#1 -4047378"/>
    </vehicle>
    <vehicle id="30" type="krauss_0.5" depart="150.00">
        <route edges="85355912 85355911#0 85355911#1 30405356 5931612 30350450#0 30350450#1 30350450#2 4006702#0 31255203#0 -31241851#2 -31241851#1 -31241851#0 31241851#0"/>
    </vehicle>
    <vehicle id="31" type="krauss_0.5" depart="155.00">
        <route edges="29900564#2 -29900564#2 -29900564#1 -8402998#2 -8402998#1 -8402997 32270595 33174302#0 33174302#1 4686970#0 4686970#1 122161381 30350448 8364476 30350450#0 30350450#1 30350450#2 4006702#0 4006702#1 4006702#2 -28269598 -4006703#1 4006705#1 4006705#2 31720632#0 31720633"/>
    </vehicle>
    <vehicle id="32" type="krauss_0.5" depart="160.00">
        <route edges="4006694 4006693#4 4006690 29900565#0 29900565#1 29900565#2 29900565#3 33174302#0 33174302#1 4686970#0 4686970#1 122161381 30350448 8364476 30350450#0 -3998645#2 3998645#2"/>
    </vehicle>
    <vehicle id="33" type="krauss_0.5" depart="165.00">
        <route edges="-3998612#1 3998612#1 3998612#2 3013106#0 3013106#1 3013106#2 4006702#0 4006702#1 4900043 4900041#1 4900041#2 -23350930"/>
    </vehicle>
    <vehicle id="34" type="krauss_0.5" depart="170.00">
        <route edges="-4006693#0 -31401017#2 -31401017#1 4006688#0 4006688#1 4006688#2 4006688#3 4006688#4 29900561#0 29900561#1 32270595 33174302#0 33174302#1 4686970#0 4686970#1 122161381 30350448 8364476 30350450#0 30350450#1 -3998643#2 -3998643#1"/>
    </vehicle>
    <vehicle id="35" type="krauss_0.5" depart="175.00">
        <route edges="-33174302#0 33174302#0 33174302#1 4686970#0 4686970#1 122161381 30350448 30350449 4047309 30751813 -35842306#1 -35842306#0 -4900741 -4900739#2 -4900739#1 4900739#1"/>
    </vehicle>
    <vehicle id="36" type="krauss_0.5" depart="180.00">
        <route edges="4006726#0 4006726#1 4006726#2 -3998645#0 -3998612#0 3998613#0 3998613#1 3998613#2 -31353573#1 -31353573#0 -33174302#1 -33174302#0 -32270595 -29900561#1 -29900561#0 -4006688#4 -4006688#3 -4006688#2"/>
    </vehicle>
    <vehicle id="37" type="krauss_0.5" depart="185.00">
        <route edges="31241853#2 31241851#2 -31255203#0 -4006702#0 -3013106#2 -3013106#1 -3013106#0 -3998612#2 -4006724#2 4872369 -4872369"/>
    </vehicle>
    <vehicle id="39" type="krauss_0.5" depart="195.00">
        <route edges="-3998653 -3998613#0 3998612#0 3998612#1 3998612#2 -3998612#2"/>
    </vehicle>
</routes>
