<?xml version="1.0" encoding="UTF-8"?>

<!-- generated on 2024-11-12 15:25:32.068761 by randomTrips.py v1_21_0+0546-c8b591674a3
<configuration>
    <net-file value="erlangen.net.xml"/>
    <output-trip-file value="erlangen.trips.xml"/>
    <trip-attributes value="type=&quot;krauss_0.5&quot;"/>
    <end value="1000.0"/>
    <period value="5.0"/>
</configuration>
-->

<routes xmlns:xsi="http://www.w3.org/2001/XMLSchema-instance" xsi:noNamespaceSchemaLocation="http://sumo.dlr.de/xsd/routes_file.xsd">
        <vType id ="krauss_0.5" sigma = "0.5" maxSpeed="35" vClass="passenger" length="4.5" guiShape="passenger" minGap="0" color="blue">
            <param key="device.rerouting.probability" value="1.0"/>
            <param key="device.rerouting.period" value="60"/>
        </vType>
    <trip id="0" depart="0.00" from="31241838#1" to="-15259223" type="krauss_0.5"/>
    <trip id="1" depart="5.00" from="-4006674#1" to="-32302591#5" type="krauss_0.5"/>
    <trip id="2" depart="10.00" from="37591481" to="31401017#2" type="krauss_0.5"/>
    <trip id="3" depart="15.00" from="4047378" to="-29900564#2" type="krauss_0.5"/>
    <trip id="4" depart="20.00" from="-94344940#0" to="-23350929" type="krauss_0.5"/>
    <trip id="5" depart="25.00" from="-35842306#1" to="23605600#2" type="krauss_0.5"/>
    <trip id="6" depart="30.00" from="-23341293" to="-32270592#1" type="krauss_0.5"/>
    <trip id="7" depart="35.00" from="31241851#2" to="28768072" type="krauss_0.5"/>
    <trip id="8" depart="40.00" from="-37591481" to="30350445" type="krauss_0.5"/>
    <trip id="9" depart="45.00" from="4006688#0" to="-10425128#0" type="krauss_0.5"/>
    <trip id="10" depart="50.00" from="4006684" to="32270592#0" type="krauss_0.5"/>
    <trip id="11" depart="55.00" from="-4006705#1" to="-31241853#0" type="krauss_0.5"/>
    <trip id="12" depart="60.00" from="5445204#2" to="-4006693#4" type="krauss_0.5"/>
    <trip id="13" depart="65.00" from="-29900567" to="-29900565#0" type="krauss_0.5"/>
    <trip id="14" depart="70.00" from="4006702#1" to="30350450#2" type="krauss_0.5"/>
    <trip id="15" depart="75.00" from="4006687" to="35842306#0" type="krauss_0.5"/>
    <trip id="16" depart="80.00" from="28613727#1" to="8402998#3" type="krauss_0.5"/>
    <trip id="17" depart="85.00" from="-4690348" to="29900564#0" type="krauss_0.5"/>
    <trip id="18" depart="90.00" from="4006693#0" to="31241816#0" type="krauss_0.5"/>
    <trip id="19" depart="95.00" from="4006705#2" to="3013106#0" type="krauss_0.5"/>
    <trip id="20" depart="100.00" from="32271499" to="-23605600#0" type="krauss_0.5"/>
    <trip id="21" depart="105.00" from="-3998612#1" to="-4006674#2" type="krauss_0.5"/>
    <trip id="22" depart="110.00" from="-29900564#5" to="-35842306#0" type="krauss_0.5"/>
    <trip id="23" depart="115.00" from="-3013107" to="-3998645#2" type="krauss_0.5"/>
    <trip id="24" depart="120.00" from="31241835#1" to="-4006725#0" type="krauss_0.5"/>
    <trip id="25" depart="125.00" from="-4099270#1" to="-32282774" type="krauss_0.5"/>
    <trip id="26" depart="130.00" from="-4006668" to="4872369" type="krauss_0.5"/>
    <trip id="27" depart="135.00" from="31241851#2" to="30405356" type="krauss_0.5"/>
    <trip id="28" depart="140.00" from="-31401018" to="35842306#0" type="krauss_0.5"/>
    <trip id="29" depart="145.00" from="-31401017#0" to="-4047378" type="krauss_0.5"/>
    <trip id="30" depart="150.00" from="85355912" to="31241851#0" type="krauss_0.5"/>
    <trip id="31" depart="155.00" from="29900564#2" to="31720633" type="krauss_0.5"/>
    <trip id="32" depart="160.00" from="4006694" to="3998645#2" type="krauss_0.5"/>
    <trip id="33" depart="165.00" from="-3998612#1" to="-23350930" type="krauss_0.5"/>
    <trip id="34" depart="170.00" from="-4006693#0" to="-3998643#1" type="krauss_0.5"/>
    <trip id="35" depart="175.00" from="-33174302#0" to="4900739#1" type="krauss_0.5"/>
    <trip id="36" depart="180.00" from="4006726#0" to="-4006688#2" type="krauss_0.5"/>
    <trip id="37" depart="185.00" from="31241853#2" to="-4872369" type="krauss_0.5"/>
    <trip id="38" depart="190.00" from="4319353" to="10712011" type="krauss_0.5"/>
    <trip id="39" depart="195.00" from="-3998653" to="-3998612#2" type="krauss_0.5"/>
    <trip id="40" depart="200.00" from="29900564#4" to="-3998615#3" type="krauss_0.5"/>
    <trip id="41" depart="205.00" from="3013107" to="4099270#0" type="krauss_0.5"/>
    <trip id="42" depart="210.00" from="-5558" to="-32302591#3" type="krauss_0.5"/>
    <trip id="43" depart="215.00" from="94344941" to="25398494#0" type="krauss_0.5"/>
    <trip id="44" depart="220.00" from="-29900567" to="-23605600#1" type="krauss_0.5"/>
    <trip id="45" depart="225.00" from="-31241816#0" to="31241834#1" type="krauss_0.5"/>
    <trip id="46" depart="230.00" from="4006674#2" to="-8402998#0" type="krauss_0.5"/>
    <trip id="47" depart="235.00" from="-29900561#0" to="-4047532" type="krauss_0.5"/>
    <trip id="48" depart="240.00" from="94344941" to="28269598" type="krauss_0.5"/>
    <trip id="49" depart="245.00" from="8402998#1" to="4006705#1" type="krauss_0.5"/>
    <trip id="50" depart="250.00" from="-10425131" to="32302591#5" type="krauss_0.5"/>
    <trip id="51" depart="255.00" from="31401017#2" to="28613727#1" type="krauss_0.5"/>
    <trip id="52" depart="260.00" from="-4006668" to="31241851#1" type="krauss_0.5"/>
    <trip id="53" depart="265.00" from="-31241816#1" to="-8403007" type="krauss_0.5"/>
    <trip id="54" depart="270.00" from="113939242#2" to="5445204#3" type="krauss_0.5"/>
    <trip id="55" depart="275.00" from="4006726#0" to="-3998615#3" type="krauss_0.5"/>
    <trip id="56" depart="280.00" from="23605600#1" to="-31401017#0" type="krauss_0.5"/>
    <trip id="57" depart="285.00" from="4319352#1" to="4006725#1" type="krauss_0.5"/>
    <trip id="58" depart="290.00" from="-4006688#0" to="31241851#0" type="krauss_0.5"/>
    <trip id="59" depart="295.00" from="30405356" to="-31241851#2" type="krauss_0.5"/>
    <trip id="60" depart="300.00" from="3998615#3" to="28613737" type="krauss_0.5"/>
    <trip id="61" depart="305.00" from="4006668" to="28269598" type="krauss_0.5"/>
    <trip id="62" depart="310.00" from="-10419402" to="-4006691" type="krauss_0.5"/>
    <trip id="63" depart="315.00" from="-10712013" to="4690348" type="krauss_0.5"/>
    <trip id="64" depart="320.00" from="4006726#1" to="4006691" type="krauss_0.5"/>
    <trip id="65" depart="325.00" from="-4006688#3" to="-25210699" type="krauss_0.5"/>
    <trip id="66" depart="330.00" from="4006726#1" to="4900741" type="krauss_0.5"/>
    <trip id="67" depart="335.00" from="-29900565#2" to="126606716" type="krauss_0.5"/>
    <trip id="68" depart="340.00" from="-29900564#1" to="3998615#3" type="krauss_0.5"/>
    <trip id="69" depart="345.00" from="3998643#1" to="-31241816#3" type="krauss_0.5"/>
    <trip id="70" depart="350.00" from="19796637" to="29900561#1" type="krauss_0.5"/>
    <trip id="71" depart="355.00" from="-3998653" to="4006725#1" type="krauss_0.5"/>
    <trip id="72" depart="360.00" from="-94344940#2" to="-32302591#0" type="krauss_0.5"/>
    <trip id="73" depart="365.00" from="28613734" to="35842306#0" type="krauss_0.5"/>
    <trip id="74" depart="370.00" from="-32302591#3" to="-4006688#1" type="krauss_0.5"/>
    <trip id="75" depart="375.00" from="94344941" to="31241853#2" type="krauss_0.5"/>
    <trip id="76" depart="380.00" from="10425130" to="25472129" type="krauss_0.5"/>
    <trip id="77" depart="385.00" from="-31241835#1" to="-32302591#5" type="krauss_0.5"/>
    <trip id="78" depart="390.00" from="-4006703#1" to="3013109" type="krauss_0.5"/>
    <trip id="79" depart="395.00" from="-3998612#2" to="-32302591#4" type="krauss_0.5"/>
    <trip id="80" depart="400.00" from="-29900564#2" to="31241838#0" type="krauss_0.5"/>
    <trip id="81" depart="405.00" from="-3998612#1" to="41973977" type="krauss_0.5"/>
    <trip id="82" depart="410.00" from="4006705#1" to="-28613727#1" type="krauss_0.5"/>
    <trip id="83" depart="415.00" from="-3998613#2" to="31353573#1" type="krauss_0.5"/>
    <trip id="84" depart="420.00" from="-33174302#1" to="-31241834#1" type="krauss_0.5"/>
    <trip id="85" depart="425.00" from="4797872" to="29900565#2" type="krauss_0.5"/>
    <trip id="86" depart="430.00" from="15259223" to="4006672" type="krauss_0.5"/>
    <trip id="87" depart="435.00" from="4006687" to="-31720632#0" type="krauss_0.5"/>
    <trip id="88" depart="440.00" from="-3013106#1" to="-8403001" type="krauss_0.5"/>
    <trip id="89" depart="445.00" from="-94344940#2" to="113939242#1" type="krauss_0.5"/>
    <trip id="90" depart="450.00" from="33174302#1" to="31401017#1" type="krauss_0.5"/>
    <trip id="91" depart="455.00" from="85355911#0" to="-29900565#1" type="krauss_0.5"/>
    <trip id="92" depart="460.00" from="-67076129" to="-4006702#0" type="krauss_0.5"/>
    <trip id="93" depart="465.00" from="4006705#2" to="-3998613#0" type="krauss_0.5"/>
    <trip id="94" depart="470.00" from="-32270593" to="10425128#1" type="krauss_0.5"/>
    <trip id="95" depart="475.00" from="-94344940#0" to="-3998645#2" type="krauss_0.5"/>
    <trip id="96" depart="480.00" from="-3998643#0" to="44069041#1" type="krauss_0.5"/>
    <trip id="97" depart="485.00" from="10573414#1" to="4006705#1" type="krauss_0.5"/>
    <trip id="98" depart="490.00" from="29900564#0" to="-23605600#2" type="krauss_0.5"/>
    <trip id="99" depart="495.00" from="9643180" to="4006693#0" type="krauss_0.5"/>
    <trip id="100" depart="500.00" from="8402998#0" to="4686970#0" type="krauss_0.5"/>
    <trip id="101" depart="505.00" from="4006702#2" to="-31255203#0" type="krauss_0.5"/>
    <trip id="102" depart="510.00" from="23350930" to="-32302591#1" type="krauss_0.5"/>
    <trip id="103" depart="515.00" from="-67076129" to="-25210699" type="krauss_0.5"/>
    <trip id="104" depart="520.00" from="-4872369" to="85355911#1" type="krauss_0.5"/>
    <trip id="105" depart="525.00" from="-3998653" to="4006672" type="krauss_0.5"/>
    <trip id="106" depart="530.00" from="113939244#0" to="-8402998#1" type="krauss_0.5"/>
    <trip id="107" depart="535.00" from="5445204#2" to="94344941" type="krauss_0.5"/>
    <trip id="108" depart="540.00" from="29900564#2" to="32302591#4" type="krauss_0.5"/>
    <trip id="109" depart="545.00" from="-31270441" to="-4006675" type="krauss_0.5"/>
    <trip id="110" depart="550.00" from="8402998#0" to="3013106#0" type="krauss_0.5"/>
    <trip id="111" depart="555.00" from="28613737" to="3998613#0" type="krauss_0.5"/>
    <trip id="112" depart="560.00" from="-28613737" to="3013106#2" type="krauss_0.5"/>
    <trip id="113" depart="565.00" from="23605600#2" to="4006702#0" type="krauss_0.5"/>
    <trip id="114" depart="570.00" from="-31353573#0" to="67076129" type="krauss_0.5"/>
    <trip id="115" depart="575.00" from="-29900564#5" to="-31401018" type="krauss_0.5"/>
    <trip id="116" depart="580.00" from="30350449" to="31401017#2" type="krauss_0.5"/>
    <trip id="117" depart="585.00" from="-3998613#1" to="-30357194" type="krauss_0.5"/>
    <trip id="118" depart="590.00" from="4047378" to="-3998612#2" type="krauss_0.5"/>
    <trip id="119" depart="595.00" from="30350449" to="31241816#1" type="krauss_0.5"/>
    <trip id="120" depart="600.00" from="-8403007" to="3013106#2" type="krauss_0.5"/>
    <trip id="121" depart="605.00" from="25472134" to="4797872" type="krauss_0.5"/>
    <trip id="122" depart="610.00" from="-32302591#4" to="32302591#3" type="krauss_0.5"/>
    <trip id="123" depart="615.00" from="-3998613#2" to="-4872369" type="krauss_0.5"/>
    <trip id="124" depart="620.00" from="31353573#0" to="-4006682" type="krauss_0.5"/>
    <trip id="125" depart="625.00" from="-4006693#0" to="3998613#2" type="krauss_0.5"/>
    <trip id="126" depart="630.00" from="-29900564#2" to="10712011" type="krauss_0.5"/>
    <trip id="127" depart="635.00" from="9643180" to="94344941" type="krauss_0.5"/>
    <trip id="128" depart="640.00" from="-29900564#2" to="-32302591#1" type="krauss_0.5"/>
    <trip id="129" depart="645.00" from="-3998653" to="4797871" type="krauss_0.5"/>
    <trip id="130" depart="650.00" from="4006726#2" to="4006726#2" type="krauss_0.5"/>
    <trip id="131" depart="655.00" from="-4099270#1" to="-31241853#1" type="krauss_0.5"/>
    <trip id="132" depart="660.00" from="4006693#2" to="32270593" type="krauss_0.5"/>
    <trip id="133" depart="665.00" from="30405358#0" to="85355912" type="krauss_0.5"/>
    <trip id="134" depart="670.00" from="31241853#1" to="-10425128#1" type="krauss_0.5"/>
    <trip id="135" depart="675.00" from="4006688#3" to="-4006682" type="krauss_0.5"/>
    <trip id="136" depart="680.00" from="31255203#0" to="4900043" type="krauss_0.5"/>
    <trip id="137" depart="685.00" from="-31241851#1" to="-3013107" type="krauss_0.5"/>
    <trip id="138" depart="690.00" from="-30357194" to="29900564#1" type="krauss_0.5"/>
    <trip id="139" depart="695.00" from="-4006674#0" to="30357194" type="krauss_0.5"/>
    <trip id="140" depart="700.00" from="32302591#3" to="-32270595" type="krauss_0.5"/>
    <trip id="141" depart="705.00" from="31241835#1" to="-3998615#3" type="krauss_0.5"/>
    <trip id="142" depart="710.00" from="23360299" to="41973977" type="krauss_0.5"/>
    <trip id="143" depart="715.00" from="4006702#1" to="-29900564#4" type="krauss_0.5"/>
    <trip id="144" depart="720.00" from="-94344940#2" to="-3998645#2" type="krauss_0.5"/>
    <trip id="145" depart="725.00" from="-10425128#0" to="3998645#0" type="krauss_0.5"/>
    <trip id="146" depart="730.00" from="31241838#0" to="-3998615#3" type="krauss_0.5"/>
    <trip id="147" depart="735.00" from="3998612#1" to="29900564#0" type="krauss_0.5"/>
    <trip id="148" depart="740.00" from="-94344940#3" to="-10425128#1" type="krauss_0.5"/>
    <trip id="149" depart="745.00" from="-29900564#3" to="4047241" type="krauss_0.5"/>
    <trip id="150" depart="750.00" from="4099309" to="29900561#0" type="krauss_0.5"/>
    <trip id="151" depart="755.00" from="4006693#2" to="3013106#2" type="krauss_0.5"/>
    <trip id="152" depart="760.00" from="-31255203#0" to="-31241816#3" type="krauss_0.5"/>
    <trip id="153" depart="765.00" from="-4006688#4" to="4099270#0" type="krauss_0.5"/>
    <trip id="154" depart="770.00" from="4006674#4" to="4006705#1" type="krauss_0.5"/>
    <trip id="155" depart="775.00" from="4047532" to="-32282774" type="krauss_0.5"/>
    <trip id="156" depart="780.00" from="-3998643#0" to="-29900565#3" type="krauss_0.5"/>
    <trip id="157" depart="785.00" from="4006672" to="4047241" type="krauss_0.5"/>
    <trip id="158" depart="790.00" from="-8402998#0" to="31241816#1" type="krauss_0.5"/>
    <trip id="159" depart="795.00" from="-31270441" to="4690348" type="krauss_0.5"/>
    <trip id="160" depart="800.00" from="4006724#0" to="8403001" type="krauss_0.5"/>
    <trip id="161" depart="805.00" from="4006688#0" to="4006740" type="krauss_0.5"/>
    <trip id="162" depart="810.00" from="-23341293" to="39539626" type="krauss_0.5"/>
    <trip id="163" depart="815.00" from="-4006702#0" to="4690348" type="krauss_0.5"/>
    <trip id="164" depart="820.00" from="4006683" to="4006705#2" type="krauss_0.5"/>
    <trip id="165" depart="825.00" from="4006688#0" to="-3998643#1" type="krauss_0.5"/>
    <trip id="166" depart="830.00" from="4006674#1" to="-3013106#0" type="krauss_0.5"/>
    <trip id="167" depart="835.00" from="4006725#0" to="4006703#1" type="krauss_0.5"/>
    <trip id="168" depart="840.00" from="-37591481" to="4006688#0" type="krauss_0.5"/>
    <trip id="169" depart="845.00" from="113939244#2" to="-4006684" type="krauss_0.5"/>
    <trip id="170" depart="850.00" from="4006674#4" to="-33174302#0" type="krauss_0.5"/>
    <trip id="171" depart="855.00" from="-126606716" to="-31777493#0" type="krauss_0.5"/>
    <trip id="172" depart="860.00" from="-4006701" to="4006705#2" type="krauss_0.5"/>
    <trip id="173" depart="865.00" from="8402997" to="-4006668" type="krauss_0.5"/>
    <trip id="174" depart="870.00" from="31241848" to="-4900739#0" type="krauss_0.5"/>
    <trip id="175" depart="875.00" from="8403007" to="28613727#1" type="krauss_0.5"/>
    <trip id="176" depart="880.00" from="4900043" to="-3013107" type="krauss_0.5"/>
    <trip id="177" depart="885.00" from="8402998#0" to="-31401017#0" type="krauss_0.5"/>
    <trip id="178" depart="890.00" from="5931612" to="-3998643#0" type="krauss_0.5"/>
    <trip id="179" depart="895.00" from="-31241816#0" to="-8403007" type="krauss_0.5"/>
    <trip id="180" depart="900.00" from="33174302#0" to="-4006688#2" type="krauss_0.5"/>
    <trip id="181" depart="905.00" from="30357194" to="25472079" type="krauss_0.5"/>
    <trip id="182" depart="910.00" from="-4900739#1" to="29900567" type="krauss_0.5"/>
    <trip id="183" depart="915.00" from="-3998643#2" to="32302591#0" type="krauss_0.5"/>
    <trip id="184" depart="920.00" from="-10419402" to="4686970#0" type="krauss_0.5"/>
    <trip id="185" depart="925.00" from="28613734" to="32302591#5" type="krauss_0.5"/>
    <trip id="186" depart="930.00" from="3998612#1" to="31401017#0" type="krauss_0.5"/>
    <trip id="187" depart="935.00" from="-4047378" to="-28613727#1" type="krauss_0.5"/>
    <trip id="188" depart="940.00" from="31255203#0" to="-4006693#2" type="krauss_0.5"/>
    <trip id="189" depart="945.00" from="-4006691" to="4006694" type="krauss_0.5"/>
    <trip id="190" depart="950.00" from="32302591#4" to="-4006682" type="krauss_0.5"/>
    <trip id="191" depart="955.00" from="-4006688#4" to="-54105725" type="krauss_0.5"/>
    <trip id="192" depart="960.00" from="-67076129" to="-4006674#4" type="krauss_0.5"/>
    <trip id="193" depart="965.00" from="-31241848" to="-8402997" type="krauss_0.5"/>
    <trip id="194" depart="970.00" from="4900043" to="31401018" type="krauss_0.5"/>
    <trip id="195" depart="975.00" from="4099309" to="30751813" type="krauss_0.5"/>
    <trip id="196" depart="980.00" from="-4006688#1" to="29900561#1" type="krauss_0.5"/>
    <trip id="197" depart="985.00" from="-10419402" to="-4006674#1" type="krauss_0.5"/>
    <trip id="198" depart="990.00" from="-9643180" to="3013106#1" type="krauss_0.5"/>
    <trip id="199" depart="995.00" from="31241853#1" to="113939242#0" type="krauss_0.5"/>
</routes>
