<?xml version='1.0' encoding='utf-8'?>
<routes xmlns:xsi="http://www.w3.org/2001/XMLSchema-instance" xsi:noNamespaceSchemaLocation="http://sumo.dlr.de/xsd/routes_file.xsd">
    
    <flow id="flow1" begin="0" end="250" number="6" from="-1188279664" to="-E10" type="cacc" />
    <flow id="flow2" begin="0" end="250" number="6" from="-1188279664" to="E21" type="cacc" />
    <flow id="flow3" begin="0" end="250" number="6" from="-1188279664" to="244354940" type="cacc" />
    <flow id="flow4" begin="0" end="250" number="6" from="-1188279664" to="23623765#3.375" type="cacc" />
    <flow id="flow5" begin="0" end="250" number="6" from="-1188279664" to="-E17" type="cacc" />
    <flow id="flow6" begin="0" end="250" number="6" from="-1188279664" to="E1" type="cacc" />
    <flow id="flow7" begin="0" end="250" number="6" from="-1188279664" to="-23623765#0" type="cacc" />
    <flow id="flow58" begin="0" end="250" number="6" from="-1188279664" to="-E21" type="cacc" />

    <flow id="flow8" begin="0" end="250" number="6" from="E10" to="1188279664" type="cacc" />
    <flow id="flow9" begin="0" end="250" number="6" from="E10" to="E21" type="cacc" />
    <flow id="flow10" begin="0" end="250" number="6" from="E10" to="244354940" type="cacc" />
    <flow id="flow11" begin="0" end="250" number="6" from="E10" to="23623765#3.375" type="cacc" />
    <flow id="flow12" begin="0" end="250" number="6" from="E10" to="-E17" type="cacc" />
    <flow id="flow13" begin="0" end="250" number="6" from="E10" to="E1" type="cacc" />
    <flow id="flow14" begin="0" end="250" number="6" from="E10" to="-23623765#0" type="cacc" />
    <flow id="flow59" begin="0" end="250" number="6" from="E10" to="-E21" type="cacc" />

    <flow id="flow15" begin="0" end="250" number="6" from="E17" to="1188279664" type="cacc" />
    <flow id="flow16" begin="0" end="250" number="6" from="E17" to="E21" type="cacc" />
    <flow id="flow17" begin="0" end="250" number="6" from="E17" to="244354940" type="cacc" />
    <flow id="flow18" begin="0" end="250" number="6" from="E17" to="23623765#3.375" type="cacc" />
    <flow id="flow19" begin="0" end="250" number="6" from="E17" to="-E10" type="cacc" />
    <flow id="flow20" begin="0" end="250" number="6" from="E17" to="E1" type="cacc" />
    <flow id="flow21" begin="0" end="250" number="6" from="E17" to="-23623765#0" type="cacc" />
    <flow id="flow60" begin="0" end="250" number="6" from="E17" to="-E21" type="cacc" />

    <flow id="flow22" begin="0" end="250" number="6" from="-23623765#3" to="1188279664" type="cacc" />
    <flow id="flow23" begin="0" end="250" number="6" from="-23623765#3" to="-E17" type="cacc" />
    <flow id="flow24" begin="0" end="250" number="6" from="-23623765#3" to="244354940" type="cacc" />
    <flow id="flow25" begin="0" end="250" number="6" from="-23623765#3" to="E21" type="cacc" />
    <flow id="flow26" begin="0" end="250" number="6" from="-23623765#3" to="-E10" type="cacc" />
    <flow id="flow27" begin="0" end="250" number="6" from="-23623765#3" to="E1" type="cacc" />
    <flow id="flow28" begin="0" end="250" number="6" from="-23623765#3" to="-23623765#0" type="cacc" />
    <flow id="flow61" begin="0" end="250" number="6" from="-23623765#3" to="-E21" type="cacc" />

    <flow id="flow29" begin="0" end="250" number="6" from="-E1" to="1188279664" type="cacc" />
    <flow id="flow30" begin="0" end="250" number="6" from="-E1" to="-E17" type="cacc" />
    <flow id="flow31" begin="0" end="250" number="6" from="-E1" to="E21" type="cacc" />
    <flow id="flow32" begin="0" end="250" number="6" from="-E1" to="23623765#3.375" type="cacc" />
    <flow id="flow33" begin="0" end="250" number="6" from="-E1" to="-E10" type="cacc" />
    <flow id="flow34" begin="0" end="250" number="6" from="-E1" to="E1" type="cacc" />
    <flow id="flow35" begin="0" end="250" number="6" from="-E1" to="-23623765#0" type="cacc" />
    <flow id="flow62" begin="0" end="250" number="6" from="-E1" to="-E21" type="cacc" />

    <flow id="flow36" begin="0" end="250" number="6" from="E12" to="1188279664" type="cacc" />
    <flow id="flow37" begin="0" end="250" number="6" from="E12" to="-E17" type="cacc" />
    <flow id="flow38" begin="0" end="250" number="6" from="E12" to="E21" type="cacc" />
    <flow id="flow39" begin="0" end="250" number="6" from="E12" to="23623765#3.375" type="cacc" />
    <flow id="flow40" begin="0" end="250" number="6" from="E12" to="-E10" type="cacc" />
    <flow id="flow41" begin="0" end="250" number="6" from="E12" to="E1" type="cacc" />
    <flow id="flow42" begin="0" end="250" number="6" from="E12" to="-23623765#0" type="cacc" />
    <flow id="flow63" begin="0" end="250" number="6" from="E12" to="-E21" type="cacc" />

    <flow id="flow43" begin="0" end="250" number="6" from="23623765#0" to="1188279664" type="cacc" />
    <flow id="flow44" begin="0" end="250" number="6" from="23623765#0" to="-E17" type="cacc" />
    <flow id="flow45" begin="0" end="250" number="6" from="23623765#0" to="E21" type="cacc" />
    <flow id="flow46" begin="0" end="250" number="6" from="23623765#0" to="23623765#3.375" type="cacc" />
    <flow id="flow47" begin="0" end="250" number="6" from="23623765#0" to="-E10" type="cacc" />
    <flow id="flow48" begin="0" end="250" number="6" from="23623765#0" to="E1" type="cacc" />
    <flow id="flow49" begin="0" end="250" number="6" from="23623765#0" to="-E12" type="cacc" />
    <flow id="flow64" begin="0" end="250" number="6" from="23623765#0" to="-E21" type="cacc" />

    <flow id="flow50" begin="0" end="250" number="6" from="E21" to="1188279664" type="cacc" />
    <flow id="flow51" begin="0" end="250" number="6" from="E21" to="-E17" type="cacc" />
    <flow id="flow52" begin="0" end="250" number="6" from="E21" to="E21" type="cacc" />
    <flow id="flow53" begin="0" end="250" number="6" from="E21" to="23623765#3.375" type="cacc" />
    <flow id="flow54" begin="0" end="250" number="6" from="E21" to="-E10" type="cacc" />
    <flow id="flow55" begin="0" end="250" number="6" from="E21" to="E1" type="cacc" />
    <flow id="flow56" begin="0" end="250" number="6" from="E21" to="-E12" type="cacc" />
    <flow id="flow57" begin="0" end="250" number="6" from="E21" to="-23623765#0" type="cacc" />    
    
</routes>