<?xml version="1.0" encoding="UTF-8"?>

<!-- generated on 2024-11-19 18:38:15.225382 by randomTrips.py v1_21_0+0546-c8b591674a3
<configuration>
    <net-file value="halmstad.net.xml"/>
    <output-trip-file value="halmstad.trips.xml"/>
    <trip-attributes value="type=&quot;krauss_0.5&quot;"/>
    <end value="1000.0"/>
    <period value="2.0"/>
</configuration>
-->

<routes xmlns:xsi="http://www.w3.org/2001/XMLSchema-instance" xsi:noNamespaceSchemaLocation="http://sumo.dlr.de/xsd/routes_file.xsd">
    <vTypeDistribution id="VehicleList">
        <vType id ="krauss_0.5" sigma = "0.5" maxSpeed="35" vClass="passenger" length="4.5" guiShape="passenger" minGap="0" color="blue">
            <param key="device.rerouting.probability" value="1.0"/>
            <param key="device.rerouting.period" value="60"/>
        </vType>
        <vType id ="krauss_0.75" sigma = "0.25" maxSpeed="45" vClass="passenger" length="4.5" guiShape="passenger" minGap="0" color="red">
            <param key="device.rerouting.probability" value="1.0"/>
            <param key="device.rerouting.period" value="60"/>
        </vType>
        <vType id ="cacc" carFollowModel="CACC" maxSpeed="35" vClass="passenger" length="4.5" guiShape="passenger" minGap="0" color="green">
            <param key="device.rerouting.probability" value="1.0"/>
            <param key="device.rerouting.period" value="60"/>
        </vType>
    </vTypeDistribution>    
    <trip id="0" depart="0.00" from="244354941" to="-160456256#0" type="krauss_0.5" />
    <trip id="1" depart="2.00" from="-59825169#2" to="-59825160#1" type="krauss_0.75" />
    <trip id="3" depart="6.00" from="746768889#1" to="-23623765#0" type="krauss_0.5" />
    <trip id="4" depart="8.00" from="1071574865" to="-160456256#0" type="krauss_0.75" />
    <trip id="6" depart="12.00" from="-1188279664" to="-59825155#2" type="krauss_0.5" />
    <trip id="7" depart="14.00" from="244354946" to="23623765#3" type="krauss_0.75" />
    <trip id="9" depart="18.00" from="59825160#1" to="-1070604871" type="krauss_0.5" />
    <trip id="10" depart="20.00" from="59825160#0" to="59825150#0" type="krauss_0.75" />
    <trip id="11" depart="22.00" from="-E3" to="-59825150#3" type="cacc" />
    <trip id="12" depart="24.00" from="E5" to="-E5" type="krauss_0.5" />
    <trip id="13" depart="26.00" from="-23623765#1" to="-23623765#1" type="krauss_0.75" />
    <trip id="15" depart="30.00" from="59825160#0" to="59825150#3" type="krauss_0.5" />
    <trip id="16" depart="32.00" from="23623765#0" to="E6" type="krauss_0.75" />
    <trip id="20" depart="40.00" from="48614463#1" to="-160456256#2" type="cacc" />
    <trip id="22" depart="44.00" from="-23623758#1" to="-59825169#0" type="krauss_0.75" />
    <trip id="23" depart="46.00" from="-23623765#1" to="-746768889#0" type="cacc" />
    <trip id="24" depart="48.00" from="244354941" to="1070604871" type="krauss_0.5" />
    <trip id="25" depart="50.00" from="-E5" to="-59825160#0" type="krauss_0.75" />
    <trip id="26" depart="52.00" from="-59825169#1" to="E1" type="cacc" />
    <trip id="27" depart="54.00" from="244354946" to="244354940" type="krauss_0.5" />
    <trip id="28" depart="56.00" from="-59825150#3" to="59825150#3" type="krauss_0.75" />
    <trip id="29" depart="58.00" from="-59825150#2" to="1071574865" type="cacc" />
    <trip id="30" depart="60.00" from="E8" to="448911877#0" type="krauss_0.5" />
    <trip id="31" depart="62.00" from="23623765#2" to="48614463#1" type="krauss_0.75" />
    <trip id="32" depart="64.00" from="59825169#2" to="59825155#2" type="cacc" />
    <trip id="33" depart="66.00" from="-59825160#0" to="-160456256#0" type="krauss_0.5" />
    <trip id="34" depart="68.00" from="-746768889#1" to="-59825187#1" type="krauss_0.75" />
    <trip id="35" depart="70.00" from="-59825155#1" to="E1" type="cacc" />
    <trip id="37" depart="74.00" from="448911877#0" to="153580096#0" type="krauss_0.75" />
    <trip id="38" depart="76.00" from="90400257" to="160456271#1" type="cacc" />
    <trip id="39" depart="78.00" from="-59825169#1" to="-59825169#1" type="krauss_0.5" />
    <trip id="40" depart="80.00" from="23623765#2" to="-59825187#1" type="krauss_0.75" />
    <trip id="41" depart="82.00" from="23628327#0" to="746768889#1" type="cacc" />
    <trip id="42" depart="84.00" from="-E8" to="-59825160#1" type="krauss_0.5" />
    <trip id="44" depart="88.00" from="-23623765#1" to="-160456256#2" type="cacc" />
    <trip id="45" depart="90.00" from="-23623765#2" to="244354941" type="krauss_0.5" />
    <trip id="46" depart="92.00" from="59825155#2" to="160456256#0" type="krauss_0.75" />
    <trip id="47" depart="94.00" from="-160456256#2" to="1188279664" type="cacc" />
    <trip id="49" depart="98.00" from="E6" to="59825187#2" type="krauss_0.75" />
    <trip id="50" depart="100.00" from="-1071574865" to="59825150#2" type="cacc" />
    <trip id="52" depart="104.00" from="-59825169#1" to="448911877#0" type="krauss_0.75" />
    <trip id="53" depart="106.00" from="-23623765#2" to="160456256#1" type="cacc" />
    <trip id="54" depart="108.00" from="160456256#0" to="E3" type="krauss_0.5" />
    <trip id="56" depart="112.00" from="160456272#1" to="-59825155#0" type="cacc" />
    <trip id="57" depart="114.00" from="90400257" to="746768887" type="krauss_0.5" />
    <trip id="58" depart="116.00" from="-59825187#2" to="448911877#0" type="krauss_0.75" />
    <trip id="59" depart="118.00" from="244354939" to="-59825150#3" type="cacc" />
    <trip id="62" depart="124.00" from="-1070604871" to="-E4" type="cacc" />
    <trip id="64" depart="128.00" from="746768889#0" to="59825169#2" type="krauss_0.75" />
    <trip id="65" depart="130.00" from="-746768889#0" to="-23623758#0" type="cacc" />
    <trip id="66" depart="132.00" from="746768889#0" to="E3" type="krauss_0.5" />
    <trip id="67" depart="134.00" from="-23623758#1" to="160456272#1" type="krauss_0.75" />
    <trip id="68" depart="136.00" from="-23623758#0" to="59825155#0" type="cacc" />
    <trip id="69" depart="138.00" from="59825155#0" to="-59825150#0" type="krauss_0.5" />
    <trip id="72" depart="144.00" from="1071574865" to="-59825160#0" type="krauss_0.5" />
    <trip id="73" depart="146.00" from="23623765#0" to="59825150#3" type="krauss_0.75" />
    <trip id="75" depart="150.00" from="E8" to="448911877#1" type="krauss_0.5" />
    <trip id="77" depart="154.00" from="-23623765#3" to="-59825160#1" type="cacc" />
    <trip id="79" depart="158.00" from="-59825160#0" to="-59825160#1" type="krauss_0.75" />
    <trip id="80" depart="160.00" from="-23623758#0" to="448911877#0" type="cacc" />
    <trip id="84" depart="168.00" from="-59825155#2" to="-59825150#1" type="krauss_0.5" />
    <trip id="87" depart="174.00" from="59825160#0" to="-59825155#1" type="krauss_0.5" />
    <trip id="88" depart="176.00" from="-23623765#1" to="160456256#1" type="krauss_0.75" />
    <trip id="89" depart="178.00" from="1071574865" to="160456271#1" type="cacc" />
    <trip id="91" depart="182.00" from="E7" to="-23623765#2" type="krauss_0.75" />
    <trip id="92" depart="184.00" from="-E8" to="-E6" type="cacc" />
    <trip id="93" depart="186.00" from="59825187#1" to="-59825169#1" type="krauss_0.5" />
    <trip id="94" depart="188.00" from="-59825150#4" to="160456271#0" type="krauss_0.75" />
    <trip id="97" depart="194.00" from="153580096#1" to="59825187#2" type="krauss_0.75" />
    <trip id="98" depart="196.00" from="23623765#1" to="-160456256#2" type="cacc" />
    <trip id="99" depart="198.00" from="E8" to="59825169#2" type="krauss_0.5" />
    <trip id="100" depart="200.00" from="E6" to="90400257" type="krauss_0.75" />
    <trip id="101" depart="202.00" from="59825169#2" to="-59825150#4" type="cacc" />
    <trip id="102" depart="204.00" from="160456272#0" to="-59825160#0" type="krauss_0.5" />
    <trip id="103" depart="206.00" from="-E8" to="-23623758#0" type="krauss_0.75" />
    <trip id="105" depart="210.00" from="-59825169#1" to="59825160#0" type="krauss_0.5" />
    <trip id="106" depart="212.00" from="160456256#0" to="160456256#0" type="krauss_0.75" />
    <trip id="107" depart="214.00" from="E5" to="E8" type="cacc" />
    <trip id="108" depart="216.00" from="23623765#2" to="59825150#2" type="krauss_0.5" />
    <trip id="109" depart="218.00" from="-59825150#1" to="-E2" type="krauss_0.75" />
    <trip id="110" depart="220.00" from="E6" to="23628327#0" type="cacc" />
    <trip id="111" depart="222.00" from="23623765#1" to="59825150#4" type="krauss_0.5" />
    <trip id="115" depart="230.00" from="-23623758#1" to="-59825155#1" type="krauss_0.75" />
    <trip id="116" depart="232.00" from="23628327#0" to="48614463#1" type="cacc" />
    <trip id="117" depart="234.00" from="-59825160#0" to="-59825150#0" type="krauss_0.5" />
    <trip id="118" depart="236.00" from="746768889#1" to="-59825169#1" type="krauss_0.75" />
    <trip id="119" depart="238.00" from="23628327#0" to="244354940" type="cacc" />
    <trip id="121" depart="242.00" from="23623758#1" to="90400257" type="krauss_0.75" />
    <trip id="122" depart="244.00" from="-59825155#1" to="59825150#1" type="cacc" />
    <trip id="123" depart="246.00" from="-59825160#1" to="153580096#0" type="krauss_0.5" />
    <trip id="124" depart="248.00" from="448911877#1" to="-E2" type="krauss_0.75" />
    <trip id="125" depart="250.00" from="-746768889#1" to="59825155#0" type="cacc" />
    <trip id="126" depart="252.00" from="-23623758#0" to="160456271#1" type="krauss_0.5" />
    <trip id="127" depart="254.00" from="E8" to="E8" type="krauss_0.75" />
    <trip id="128" depart="256.00" from="-23623758#0" to="-59825160#0" type="cacc" />
    <trip id="130" depart="260.00" from="746768889#0" to="746768887" type="krauss_0.75" />
    <trip id="131" depart="262.00" from="-E5" to="-59825150#3" type="cacc" />
    <trip id="132" depart="264.00" from="59825169#1" to="59825150#0" type="krauss_0.5" />
    <trip id="133" depart="266.00" from="244354939" to="E7" type="krauss_0.75" />
    <trip id="134" depart="268.00" from="448911877#0" to="-1070604871" type="cacc" />
    <trip id="135" depart="270.00" from="59825160#1" to="-E2" type="krauss_0.5" />
    <trip id="136" depart="272.00" from="448911877#1" to="E1" type="krauss_0.75" />
    <trip id="138" depart="276.00" from="-23623765#2" to="23623765#3" type="krauss_0.5" />
    <trip id="140" depart="280.00" from="59825150#0" to="-59825155#2" type="cacc" />
    <trip id="141" depart="282.00" from="244354941" to="-59825187#1" type="krauss_0.5" />
    <trip id="145" depart="290.00" from="-1070604871" to="59825155#1" type="krauss_0.75" />
    <trip id="146" depart="292.00" from="244354941" to="-59825187#1" type="cacc" />
    <trip id="148" depart="296.00" from="153580096#0" to="-1070604871" type="krauss_0.75" />
    <trip id="149" depart="298.00" from="-23623758#0" to="746768889#0" type="cacc" />
    <trip id="150" depart="300.00" from="90400228" to="23623765#3" type="krauss_0.5" />
    <trip id="152" depart="304.00" from="-59825150#1" to="-59825150#0" type="cacc" />
    <trip id="153" depart="306.00" from="-746768889#0" to="746768889#1" type="krauss_0.5" />
    <trip id="154" depart="308.00" from="59825155#2" to="59825187#2" type="krauss_0.75" />
    <trip id="155" depart="310.00" from="90400228" to="-59825160#0" type="cacc" />
    <trip id="162" depart="324.00" from="-1188279664" to="59825150#3" type="krauss_0.5" />
    <trip id="164" depart="328.00" from="59825160#0" to="59825187#2" type="cacc" />
    <trip id="165" depart="330.00" from="59825160#1" to="-59825187#1" type="krauss_0.5" />
    <trip id="168" depart="336.00" from="-59825155#2" to="59825169#1" type="krauss_0.5" />
    <trip id="170" depart="340.00" from="59825155#2" to="-59825160#1" type="cacc" />
    <trip id="171" depart="342.00" from="-1188279664" to="-59825155#1" type="krauss_0.5" />
    <trip id="172" depart="344.00" from="-E1" to="59825187#2" type="krauss_0.75" />
    <trip id="173" depart="346.00" from="E6" to="-746768889#0" type="cacc" />
    <trip id="174" depart="348.00" from="244354946" to="153580096#0" type="krauss_0.5" />
    <trip id="175" depart="350.00" from="E7" to="23623765#2" type="krauss_0.75" />
    <trip id="177" depart="354.00" from="E6" to="-59825155#0" type="krauss_0.5" />
    <trip id="178" depart="356.00" from="E5" to="-59825187#1" type="krauss_0.75" />
    <trip id="179" depart="358.00" from="-23623765#2" to="160456256#1" type="cacc" />
    <trip id="181" depart="362.00" from="23628327#1" to="23623758#1" type="krauss_0.75" />
    <trip id="182" depart="364.00" from="-E7" to="23628327#0" type="cacc" />
    <trip id="183" depart="366.00" from="-59825169#0" to="59825150#1" type="krauss_0.5" />
    <trip id="185" depart="370.00" from="23623765#0" to="59825150#2" type="cacc" />
    <trip id="187" depart="374.00" from="-E5" to="-23623758#1" type="krauss_0.75" />
    <trip id="190" depart="380.00" from="59825150#1" to="-E2" type="krauss_0.75" />
    <trip id="191" depart="382.00" from="-746768889#0" to="153580096#1" type="cacc" />
    <trip id="192" depart="384.00" from="-E8" to="-E2" type="krauss_0.5" />
    <trip id="193" depart="386.00" from="-59825146" to="160456256#0" type="krauss_0.75" />
    <trip id="195" depart="390.00" from="90400228" to="244354940" type="krauss_0.5" />
    <trip id="199" depart="398.00" from="448911877#0" to="160456271#1" type="krauss_0.75" />
    <trip id="200" depart="400.00" from="153580096#1" to="-59825160#0" type="cacc" />
    <trip id="202" depart="404.00" from="59825155#2" to="-59825150#4" type="krauss_0.75" />
    <trip id="203" depart="406.00" from="-23623758#1" to="23623758#1" type="cacc" />
    <trip id="204" depart="408.00" from="244354941" to="-E5" type="krauss_0.5" />
    <trip id="205" depart="410.00" from="59825160#1" to="59825155#0" type="krauss_0.75" />
    <trip id="206" depart="412.00" from="448911877#1" to="-59825160#1" type="cacc" />
    <trip id="207" depart="414.00" from="-59825155#0" to="-160456256#0" type="krauss_0.5" />
    <trip id="208" depart="416.00" from="-59825160#1" to="160456272#0" type="krauss_0.75" />
    <trip id="211" depart="422.00" from="-59825155#0" to="59825150#0" type="krauss_0.75" />
    <trip id="212" depart="424.00" from="160456272#0" to="-59825169#1" type="cacc" />
    <trip id="213" depart="426.00" from="448911877#0" to="-1070604871" type="krauss_0.5" />
    <trip id="214" depart="428.00" from="59825150#3" to="59825155#1" type="krauss_0.75" />
    <trip id="215" depart="430.00" from="-23623765#2" to="160456256#1" type="cacc" />
    <trip id="217" depart="434.00" from="23623758#1" to="-160456256#2" type="krauss_0.75" />
    <trip id="219" depart="438.00" from="160456256#0" to="59825160#1" type="krauss_0.5" />
    <trip id="221" depart="442.00" from="23628327#0" to="E3" type="cacc" />
    <trip id="222" depart="444.00" from="746768889#1" to="244354940" type="krauss_0.5" />
    <trip id="225" depart="450.00" from="746768889#1" to="59825150#4" type="krauss_0.5" />
    <trip id="227" depart="454.00" from="-59825169#0" to="448911877#0" type="cacc" />
    <trip id="229" depart="458.00" from="244354940" to="-746768889#0" type="krauss_0.75" />
    <trip id="230" depart="460.00" from="-23623758#0" to="-746768889#1" type="cacc" />
    <trip id="231" depart="462.00" from="-59825169#2" to="-E4" type="krauss_0.5" />
    <trip id="232" depart="464.00" from="23623765#1" to="-59825150#1" type="krauss_0.75" />
    <trip id="233" depart="466.00" from="-59825160#0" to="59825146" type="cacc" />
    <trip id="236" depart="472.00" from="1071574865" to="-59825160#0" type="cacc" />
    <trip id="238" depart="476.00" from="23623768#1" to="59825146" type="krauss_0.75" />
    <trip id="239" depart="478.00" from="59825187#1" to="59825155#1" type="cacc" />
    <trip id="241" depart="482.00" from="-E4" to="59825155#0" type="krauss_0.75" />
    <trip id="242" depart="484.00" from="59825169#2" to="E3" type="cacc" />
    <trip id="243" depart="486.00" from="1071574865" to="59825150#4" type="krauss_0.5" />
    <trip id="244" depart="488.00" from="23623765#1" to="244354939" type="krauss_0.75" />
    <trip id="245" depart="490.00" from="-59825155#2" to="-59825160#1" type="cacc" />
    <trip id="246" depart="492.00" from="153580096#0" to="-160456256#0" type="krauss_0.5" />
    <trip id="248" depart="496.00" from="-E8" to="-59825150#4" type="cacc" />
    <trip id="249" depart="498.00" from="160456256#1" to="-59825150#0" type="krauss_0.5" />
    <trip id="250" depart="500.00" from="244354940" to="-160456256#0" type="krauss_0.75" />
    <trip id="251" depart="502.00" from="-E8" to="23623768#0" type="cacc" />
    <trip id="252" depart="504.00" from="-1188279664" to="448911877#1" type="krauss_0.5" />
    <trip id="253" depart="506.00" from="-59825150#0" to="160456271#1" type="krauss_0.75" />
    <trip id="254" depart="508.00" from="-160456256#1" to="1071574865" type="cacc" />
    <trip id="256" depart="512.00" from="59825150#4" to="1071574865" type="krauss_0.75" />
    <trip id="257" depart="514.00" from="59825150#3" to="59825169#2" type="cacc" />
    <trip id="261" depart="522.00" from="244354946" to="59825155#2" type="krauss_0.5" />
    <trip id="262" depart="524.00" from="448911877#0" to="59825155#0" type="krauss_0.75" />
    <trip id="263" depart="526.00" from="E4" to="-59825155#2" type="cacc" />
    <trip id="264" depart="528.00" from="-1071574865" to="-59825150#3" type="krauss_0.5" />
    <trip id="266" depart="532.00" from="23623768#0" to="-59825160#1" type="cacc" />
    <trip id="267" depart="534.00" from="48614463#1" to="59825155#1" type="krauss_0.5" />
    <trip id="271" depart="542.00" from="-23623765#2" to="-160456256#0" type="krauss_0.75" />
    <trip id="272" depart="544.00" from="-746768889#0" to="48614463#1" type="cacc" />
    <trip id="273" depart="546.00" from="E5" to="153580096#0" type="krauss_0.5" />
    <trip id="276" depart="552.00" from="-23623765#2" to="59825155#2" type="krauss_0.5" />
    <trip id="278" depart="556.00" from="-23623765#3" to="E7" type="cacc" />
    <trip id="280" depart="560.00" from="153580096#0" to="1071574865" type="krauss_0.75" />
    <trip id="281" depart="562.00" from="23623758#0" to="-E6" type="cacc" />
    <trip id="282" depart="564.00" from="59825169#2" to="59825169#1" type="krauss_0.5" />
    <trip id="284" depart="568.00" from="244354941" to="59825169#2" type="cacc" />
    <trip id="285" depart="570.00" from="48614463#1" to="160456256#2" type="krauss_0.5" />
    <trip id="287" depart="574.00" from="-59825169#2" to="59825169#0" type="cacc" />
    <trip id="288" depart="576.00" from="23623765#0" to="160456272#1" type="krauss_0.5" />
    <trip id="289" depart="578.00" from="153580096#0" to="59825150#3" type="krauss_0.75" />
    <trip id="292" depart="584.00" from="746768889#0" to="-59825169#1" type="krauss_0.75" />
    <trip id="295" depart="590.00" from="59825169#2" to="-59825155#0" type="krauss_0.75" />
    <trip id="296" depart="592.00" from="-59825155#1" to="59825160#1" type="cacc" />
    <trip id="299" depart="598.00" from="-1070604871" to="E3" type="cacc" />
    <trip id="300" depart="600.00" from="-23623758#1" to="59825150#2" type="krauss_0.5" />
    <trip id="301" depart="602.00" from="160456272#0" to="59825155#0" type="krauss_0.75" />
    <trip id="302" depart="604.00" from="48614463#0" to="448911877#1" type="cacc" />
    <trip id="303" depart="606.00" from="160456272#0" to="59825160#0" type="krauss_0.5" />
    <trip id="304" depart="608.00" from="-23623765#1" to="-59825160#1" type="krauss_0.75" />
    <trip id="306" depart="612.00" from="23623768#1" to="160456272#0" type="krauss_0.5" />
    <trip id="307" depart="614.00" from="23623765#0" to="160456256#1" type="krauss_0.75" />
    <trip id="309" depart="618.00" from="48614463#1" to="-59825187#1" type="krauss_0.5" />
    <trip id="310" depart="620.00" from="-59825169#0" to="-59825150#0" type="krauss_0.75" />
    <trip id="312" depart="624.00" from="23623765#0" to="59825155#1" type="krauss_0.5" />
    <trip id="313" depart="626.00" from="-59825150#4" to="-59825160#0" type="krauss_0.75" />
    <trip id="314" depart="628.00" from="160456272#0" to="59825150#2" type="cacc" />
    <trip id="315" depart="630.00" from="E6" to="23623765#1" type="krauss_0.5" />
    <trip id="317" depart="634.00" from="-59825155#0" to="-59825160#1" type="cacc" />
    <trip id="318" depart="636.00" from="-59825150#3" to="-1071574865" type="krauss_0.5" />
    <trip id="319" depart="638.00" from="23623765#0" to="-746768889#0" type="krauss_0.75" />
    <trip id="320" depart="640.00" from="E6" to="23623765#3" type="cacc" />
    <trip id="321" depart="642.00" from="48614463#1" to="-59825150#0" type="krauss_0.5" />
    <trip id="324" depart="648.00" from="160456256#1" to="160456256#2" type="krauss_0.5" />
    <trip id="325" depart="650.00" from="-59825150#4" to="-160456256#2" type="krauss_0.75" />
    <trip id="327" depart="654.00" from="59825169#0" to="153580096#0" type="krauss_0.5" />
    <trip id="328" depart="656.00" from="-23623758#0" to="244354941" type="krauss_0.75" />
    <trip id="329" depart="658.00" from="-160456256#1" to="-59825150#2" type="cacc" />
    <trip id="330" depart="660.00" from="23623768#0" to="-E2" type="krauss_0.5" />
    <trip id="333" depart="666.00" from="59825155#2" to="-59825160#1" type="krauss_0.5" />
    <trip id="334" depart="668.00" from="23623758#1" to="160456271#0" type="krauss_0.75" />
    <trip id="335" depart="670.00" from="153580096#1" to="59825187#2" type="cacc" />
    <trip id="337" depart="674.00" from="244354940" to="244354940" type="krauss_0.75" />
    <trip id="338" depart="676.00" from="59825150#2" to="E3" type="cacc" />
    <trip id="339" depart="678.00" from="-59825155#1" to="-59825160#0" type="krauss_0.5" />
    <trip id="340" depart="680.00" from="448911877#0" to="-59825150#3" type="krauss_0.75" />
    <trip id="342" depart="684.00" from="-1070604871" to="160456271#0" type="krauss_0.5" />
    <trip id="343" depart="686.00" from="23628327#0" to="-746768889#1" type="krauss_0.75" />
    <trip id="344" depart="688.00" from="-59825160#0" to="59825150#1" type="cacc" />
    <trip id="345" depart="690.00" from="48614463#1" to="160456271#0" type="krauss_0.5" />
    <trip id="350" depart="700.00" from="244354946" to="746768895" type="cacc" />
    <trip id="353" depart="706.00" from="59825150#3" to="23623768#1" type="cacc" />
    <trip id="354" depart="708.00" from="-59825187#1" to="-59825150#0" type="krauss_0.5" />
    <trip id="355" depart="710.00" from="48614463#0" to="59825150#0" type="krauss_0.75" />
    <trip id="358" depart="716.00" from="-160456256#0" to="160456256#1" type="krauss_0.75" />
    <trip id="359" depart="718.00" from="-746768889#1" to="-59825169#2" type="cacc" />
    <trip id="361" depart="722.00" from="59825169#1" to="23623768#1" type="krauss_0.75" />
    <trip id="363" depart="726.00" from="448911877#1" to="-59825187#1" type="krauss_0.5" />
    <trip id="364" depart="728.00" from="-160456256#0" to="59825155#0" type="krauss_0.75" />
    <trip id="365" depart="730.00" from="160456256#1" to="448911877#1" type="cacc" />
    <trip id="366" depart="732.00" from="90400257" to="-59825155#0" type="krauss_0.5" />
    <trip id="367" depart="734.00" from="23628327#0" to="448911877#0" type="krauss_0.75" />
    <trip id="371" depart="742.00" from="-E1" to="59825146" type="cacc" />
    <trip id="372" depart="744.00" from="-59825187#1" to="E1" type="krauss_0.5" />
    <trip id="375" depart="750.00" from="-746768889#1" to="E6" type="krauss_0.5" />
    <trip id="376" depart="752.00" from="-E8" to="23623758#1" type="krauss_0.75" />
    <trip id="377" depart="754.00" from="E7" to="458845292" type="cacc" />
    <trip id="378" depart="756.00" from="23623765#1" to="160456256#0" type="krauss_0.5" />
    <trip id="379" depart="758.00" from="-59825150#4" to="1070604871" type="krauss_0.75" />
    <trip id="381" depart="762.00" from="59825150#4" to="-59825155#2" type="krauss_0.5" />
    <trip id="382" depart="764.00" from="23623765#1" to="90400257" type="krauss_0.75" />
    <trip id="383" depart="766.00" from="153580096#0" to="59825150#0" type="cacc" />
    <trip id="384" depart="768.00" from="-23623765#3" to="E6" type="krauss_0.5" />
    <trip id="385" depart="770.00" from="244354939" to="-59825169#1" type="krauss_0.75" />
    <trip id="387" depart="774.00" from="23623765#2" to="-23623765#1" type="krauss_0.5" />
    <trip id="392" depart="784.00" from="-59825169#2" to="59825169#2" type="cacc" />
    <trip id="393" depart="786.00" from="E7" to="-59825169#1" type="krauss_0.5" />
    <trip id="394" depart="788.00" from="23623765#2" to="1188279664" type="krauss_0.75" />
    <trip id="396" depart="792.00" from="746768889#0" to="59825187#2" type="krauss_0.5" />
    <trip id="397" depart="794.00" from="-59825169#2" to="59825160#0" type="krauss_0.75" />
    <trip id="399" depart="798.00" from="23623758#0" to="59825169#1" type="krauss_0.5" />
    <trip id="400" depart="800.00" from="-59825187#1" to="-E2" type="krauss_0.75" />
    <trip id="401" depart="802.00" from="23628327#0" to="E8" type="cacc" />
    <trip id="402" depart="804.00" from="160456272#0" to="-59825150#2" type="krauss_0.5" />
    <trip id="403" depart="806.00" from="23623765#0" to="-E6" type="krauss_0.75" />
    <trip id="404" depart="808.00" from="23623765#2" to="23623765#2" type="cacc" />
    <trip id="405" depart="810.00" from="160456256#0" to="-E4" type="krauss_0.5" />
    <trip id="406" depart="812.00" from="-59825150#4" to="59825150#0" type="krauss_0.75" />
    <trip id="407" depart="814.00" from="23623768#0" to="-59825169#0" type="cacc" />
    <trip id="408" depart="816.00" from="59825155#1" to="-160456256#2" type="krauss_0.5" />
    <trip id="409" depart="818.00" from="59825150#3" to="59825150#0" type="krauss_0.75" />
    <trip id="410" depart="820.00" from="59825160#1" to="1188279664" type="cacc" />
    <trip id="411" depart="822.00" from="448911877#1" to="59825169#1" type="krauss_0.5" />
    <trip id="412" depart="824.00" from="E7" to="180755978#0" type="krauss_0.75" />
    <trip id="414" depart="828.00" from="23628327#0" to="746768887" type="krauss_0.5" />
    <trip id="416" depart="832.00" from="23623758#1" to="160456271#1" type="cacc" />
    <trip id="417" depart="834.00" from="59825150#1" to="153580096#1" type="krauss_0.5" />
    <trip id="418" depart="836.00" from="448911877#0" to="-59825150#3" type="krauss_0.75" />
    <trip id="420" depart="840.00" from="-E3" to="59825146" type="krauss_0.5" />
    <trip id="422" depart="844.00" from="59825169#2" to="59825187#2" type="cacc" />
    <trip id="424" depart="848.00" from="59825150#0" to="59825155#0" type="krauss_0.75" />
    <trip id="426" depart="852.00" from="-23623758#0" to="448911877#0" type="krauss_0.5" />
    <trip id="427" depart="854.00" from="90400257" to="E8" type="krauss_0.75" />
    <trip id="428" depart="856.00" from="59825150#3" to="160456256#1" type="cacc" />
    <trip id="429" depart="858.00" from="-23623765#1" to="448911877#0" type="krauss_0.5" />
    <trip id="432" depart="864.00" from="-160456256#1" to="59825160#1" type="krauss_0.5" />
    <trip id="433" depart="866.00" from="-59825187#2" to="1071574865" type="krauss_0.75" />
    <trip id="435" depart="870.00" from="23623768#0" to="59825160#0" type="krauss_0.5" />
    <trip id="439" depart="878.00" from="-59825150#0" to="160456271#1" type="krauss_0.75" />
    <trip id="440" depart="880.00" from="-59825169#0" to="-59825169#2" type="cacc" />
    <trip id="441" depart="882.00" from="-1070604871" to="59825169#0" type="krauss_0.5" />
    <trip id="442" depart="884.00" from="90400228" to="48614463#1" type="krauss_0.75" />
    <trip id="443" depart="886.00" from="-59825150#2" to="160456256#2" type="cacc" />
    <trip id="445" depart="890.00" from="244354941" to="160456256#1" type="krauss_0.75" />
    <trip id="446" depart="892.00" from="-59825169#0" to="59825183" type="cacc" />
    <trip id="447" depart="894.00" from="-59825155#0" to="1188279664" type="krauss_0.5" />
    <trip id="448" depart="896.00" from="160456272#0" to="-59825169#0" type="krauss_0.75" />
    <trip id="449" depart="898.00" from="23623768#0" to="23623768#1" type="cacc" />
    <trip id="450" depart="900.00" from="E8" to="-E2" type="krauss_0.5" />
    <trip id="451" depart="902.00" from="E7" to="458845292" type="krauss_0.75" />
    <trip id="452" depart="904.00" from="-59825169#2" to="23623768#1" type="cacc" />
    <trip id="453" depart="906.00" from="48614463#0" to="59825150#4" type="krauss_0.5" />
    <trip id="456" depart="912.00" from="-59825187#1" to="59825160#1" type="krauss_0.5" />
    <trip id="457" depart="914.00" from="244354939" to="-E7" type="krauss_0.75" />
    <trip id="458" depart="916.00" from="244354941" to="244354941" type="cacc" />
    <trip id="459" depart="918.00" from="458845292" to="59825150#2" type="krauss_0.5" />
    <trip id="460" depart="920.00" from="448911877#0" to="59825183" type="krauss_0.75" />
    <trip id="461" depart="922.00" from="244354940" to="746768895" type="cacc" />
    <trip id="465" depart="930.00" from="-59825187#2" to="59825150#4" type="krauss_0.5" />
    <trip id="466" depart="932.00" from="-59825150#3" to="-59825150#1" type="krauss_0.75" />
    <trip id="467" depart="934.00" from="23623765#1" to="E6" type="cacc" />
    <trip id="468" depart="936.00" from="23623765#0" to="90400228" type="krauss_0.5" />
    <trip id="469" depart="938.00" from="59825169#0" to="-59825169#2" type="krauss_0.75" />
    <trip id="470" depart="940.00" from="59825169#0" to="160456272#1" type="cacc" />
    <trip id="471" depart="942.00" from="59825160#0" to="59825150#4" type="krauss_0.5" />
    <trip id="473" depart="946.00" from="E5" to="-59825150#1" type="cacc" />
    <trip id="474" depart="948.00" from="E6" to="59825187#2" type="krauss_0.5" />
    <trip id="476" depart="952.00" from="E6" to="59825169#0" type="cacc" />
    <trip id="477" depart="954.00" from="-E5" to="59825160#0" type="krauss_0.5" />
    <trip id="481" depart="962.00" from="59825169#0" to="E1" type="krauss_0.75" />