<?xml version="1.0" encoding="UTF-8"?>

<!-- generated on 2025-01-25 16:47:42 by Eclipse SUMO duarouter Version v1_21_0+0546-c8b591674a3
<duarouterConfiguration xmlns:xsi="http://www.w3.org/2001/XMLSchema-instance" xsi:noNamespaceSchemaLocation="http://sumo.dlr.de/xsd/duarouterConfiguration.xsd">

    <input>
        <net-file value="halmstad.net.xml"/>
        <route-files value="halmstad.trips.xml"/>
    </input>

    <output>
        <output-file value="halmstad.rou.xml"/>
    </output>

</duarouterConfiguration>
-->

<routes xmlns:xsi="http://www.w3.org/2001/XMLSchema-instance" xsi:noNamespaceSchemaLocation="http://sumo.dlr.de/xsd/routes_file.xsd">
    <vehicle id="0" type="krauss" depart="0.00">
        <route edges="244354941 244354940 -244354946 E14 -59825169#2 -59825169#1 1071574865 -160456256#1 -160456256#0"/>
    </vehicle>
    <vehicle id="1" type="krauss" depart="2.00">
        <route edges="-59825169#2 -59825169#1 -59825169#0 59825150#2 59825160#0 59825160#1 -59825160#1"/>
    </vehicle>
    <vehicle id="2" type="krauss" depart="4.00">
        <route edges="160456272#0 160456272#1 23623767#5 153580096#0 153580096#1 160456256#0 59825150#0 59825150#1 59825150#2 59825160#0 -59825160#0"/>
    </vehicle>
    <vehicle id="3" type="krauss" depart="6.00">
        <route edges="746768889#1 23623758#0 23623758#1 -23623765#2 -23623765#1 -23623765#0"/>
    </vehicle>
    <vehicle id="4" type="krauss" depart="8.00">
        <route edges="1071574865 -160456256#1 -160456256#0"/>
    </vehicle>
    <vehicle id="5" type="krauss" depart="10.00">
        <route edges="-59825169#1 -59825169#0 59825150#2 59825160#0"/>
    </vehicle>
    <vehicle id="6" type="krauss" depart="12.00">
        <route edges="-1188279664 160456272#0 160456272#1 23623767#5 153580096#0 153580096#1 160456256#0 59825150#0 59825150#1 59825150#2 59825160#0 -59825155#2"/>
    </vehicle>
    <vehicle id="7" type="krauss" depart="14.00">
        <route edges="244354946 23628327#0 746768889#1 23623758#0 23623758#1 23623765#3"/>
    </vehicle>
    <vehicle id="8" type="krauss" depart="16.00">
        <route edges="23623765#2 -23623758#1 -23623758#0 -746768889#1 -746768889#0 244354940 -244354946 E14 -59825169#2 -59825169#1 -59825169#0 59825150#2"/>
    </vehicle>
    <vehicle id="9" type="krauss" depart="18.00">
        <route edges="59825160#1 -59825160#1 -59825160#0 -59825150#2 59825169#0 59825169#1 -1070604871"/>
    </vehicle>
    <vehicle id="10" type="krauss" depart="20.00">
        <route edges="59825160#0 -59825160#0 -59825150#2 -59825150#1 -59825150#0 59825150#0"/>
    </vehicle>
    <vehicle id="11" type="krauss" depart="22.00">
        <route edges="-E3 -160456256#2 -160456256#1 59825150#0 59825150#1 59825150#2 59825150#3 59825150#4 -59825150#4 -59825150#3"/>
    </vehicle>
    <vehicle id="12" type="krauss" depart="24.00">
        <route edges="E5 -E7 90400228 E6 -E5"/>
    </vehicle>
    <vehicle id="13" type="krauss" depart="26.00">
        <route edges="-23623765#1"/>
    </vehicle>
    <vehicle id="14" type="krauss" depart="28.00">
        <route edges="59825150#3 59825150#4 59825155#1"/>
    </vehicle>
    <vehicle id="15" type="krauss" depart="30.00">
        <route edges="59825160#0 -59825160#0 59825150#3"/>
    </vehicle>
    <vehicle id="16" type="krauss" depart="32.00">
        <route edges="23623765#0 23623765#1 23623765#2 -23623758#1 -23623758#0 -746768889#1 23628327#1 244354939 90400228 E6"/>
    </vehicle>
    <vehicle id="17" type="krauss" depart="34.00">
        <route edges="-59825160#0 -59825150#2 -59825150#1 -59825150#0"/>
    </vehicle>
    <vehicle id="18" type="krauss" depart="36.00">
        <route edges="746768889#1 23623758#0 23623758#1 -23623758#1 -23623758#0 -746768889#1 -746768889#0 244354940 -244354946 E14 -59825169#2 -59825169#1"/>
    </vehicle>
    <vehicle id="19" type="krauss" depart="38.00">
        <route edges="23628327#0 -746768889#0 244354940"/>
    </vehicle>
    <vehicle id="20" type="krauss" depart="40.00">
        <route edges="48614463#1 23623767#1 23623767#2 23623767#3 23623767#4 23623767#5 153580096#0 153580096#1 160456256#0 160456256#1 -1071574865 59825169#1 -1070604871 -59825187#1 -E4 -160456256#2"/>
    </vehicle>
    <vehicle id="21" type="krauss" depart="42.00">
        <route edges="746768889#0 -746768889#0 244354940 -244354946 E14 -59825169#2 59825169#2"/>
    </vehicle>
    <vehicle id="22" type="krauss" depart="44.00">
        <route edges="-23623758#1 -23623758#0 -746768889#1 -746768889#0 244354940 -244354946 E14 -59825169#2 -59825169#1 -59825169#0"/>
    </vehicle>
    <vehicle id="23" type="krauss" depart="46.00">
        <route edges="-23623765#1 -23623765#0 E12 E13 244354946 23628327#0 -746768889#0"/>
    </vehicle>
    <vehicle id="24" type="krauss" depart="48.00">
        <route edges="244354941 244354940 -244354946 -E13 -59825187#2 1070604871"/>
    </vehicle>
    <vehicle id="25" type="krauss" depart="50.00">
        <route edges="-E5 90400257 244354941 244354940 -244354946 E14 -59825169#2 -59825169#1 -59825169#0 59825150#2 59825160#0 -59825160#0"/>
    </vehicle>
    <vehicle id="26" type="krauss" depart="52.00">
        <route edges="-59825169#1 59825169#1 -1070604871 -59825187#1 -E4 E3 E1"/>
    </vehicle>
    <vehicle id="27" type="krauss" depart="54.00">
        <route edges="244354946 23628327#0 -746768889#0 244354940"/>
    </vehicle>
    <vehicle id="28" type="krauss" depart="56.00">
        <route edges="-59825150#3 59825150#3"/>
    </vehicle>
    <vehicle id="29" type="krauss" depart="58.00">
        <route edges="-59825150#2 59825169#0 1071574865"/>
    </vehicle>
    <vehicle id="30" type="krauss" depart="60.00">
        <route edges="E8 48614463#0 48614463#1 23623767#1 23623767#2 23623767#3 23623767#4 23623767#5 153580096#0 153580096#1 458845292 448911877#0"/>
    </vehicle>
    <vehicle id="31" type="krauss" depart="62.00">
        <route edges="23623765#2 -23623758#1 -23623758#0 -746768889#1 23628327#1 244354939 E7 E8 48614463#0 48614463#1"/>
    </vehicle>
    <vehicle id="32" type="krauss" depart="64.00">
        <route edges="59825169#2 -59825169#2 -59825169#1 -59825169#0 59825150#2 59825150#3 59825150#4 59825155#1 59825155#2"/>
    </vehicle>
    <vehicle id="33" type="krauss" depart="66.00">
        <route edges="-59825160#0 -59825150#2 -59825150#1 -59825150#0 -160456256#0"/>
    </vehicle>
    <vehicle id="34" type="krauss" depart="68.00">
        <route edges="-746768889#1 -746768889#0 244354940 -244354946 -E13 -59825187#2 -59825187#1"/>
    </vehicle>
    <vehicle id="35" type="krauss" depart="70.00">
        <route edges="-59825155#1 -59825150#4 -59825150#3 -59825150#2 -59825150#1 -59825150#0 59825146 -E0 E1"/>
    </vehicle>
    <vehicle id="36" type="krauss" depart="72.00">
        <route edges="160456272#1 23623767#5 153580096#0 153580096#1 160456256#0 59825150#0 59825150#1 59825150#2 59825150#3 59825150#4 -59825155#0"/>
    </vehicle>
    <vehicle id="37" type="krauss" depart="74.00">
        <route edges="448911877#0 448911877#1 23623767#7 23623767#8 23623767#0 23623767#1 23623767#2 23623767#3 23623767#4 23623767#5 153580096#0"/>
    </vehicle>
    <vehicle id="38" type="krauss" depart="76.00">
        <route edges="90400257 244354941 746768889#0 23628327#1 244354939 E7 E8 48614463#0 48614463#1 23623767#1 23623767#2 23623767#3 23623767#4 23623767#5 23623767#6 23623767#7 160456271#0 160456271#1"/>
    </vehicle>
    <vehicle id="39" type="krauss" depart="78.00">
        <route edges="-59825169#1"/>
    </vehicle>
    <vehicle id="40" type="krauss" depart="80.00">
        <route edges="23623765#2 -23623758#1 -23623758#0 -746768889#1 -746768889#0 244354940 -244354946 -E13 -59825187#2 -59825187#1"/>
    </vehicle>
    <vehicle id="41" type="krauss" depart="82.00">
        <route edges="23628327#0 746768889#1"/>
    </vehicle>
    <vehicle id="42" type="krauss" depart="84.00">
        <route edges="-E8 -E7 90400228 E6 E8 48614463#0 48614463#1 23623767#1 23623767#2 23623767#3 23623767#4 23623767#5 153580096#0 153580096#1 160456256#0 59825150#0 59825150#1 59825150#2 59825160#0 59825160#1 -59825160#1"/>
    </vehicle>
    <vehicle id="43" type="krauss" depart="86.00">
        <route edges="23623765#0 23623765#1 23623765#2 -23623758#1 -23623758#0 -746768889#1 -746768889#0 244354940 -244354946 E14 -59825169#2 -59825169#1 -59825169#0 59825150#2 59825150#3"/>
    </vehicle>
    <vehicle id="44" type="krauss" depart="88.00">
        <route edges="-23623765#1 -23623765#0 E12 -59825187#2 -59825187#1 -E4 -160456256#2"/>
    </vehicle>
    <vehicle id="45" type="krauss" depart="90.00">
        <route edges="-23623765#2 -23623765#1 -23623765#0 E12 E13 244354946 23628327#0 23628327#1 244354939 E7 -E5 90400257 244354941"/>
    </vehicle>
    <vehicle id="46" type="krauss" depart="92.00">
        <route edges="59825155#2 -59825160#0 -59825150#2 -59825150#1 -59825150#0 -160456256#0 160456256#0"/>
    </vehicle>
    <vehicle id="47" type="krauss" depart="94.00">
        <route edges="-160456256#2 -160456256#1 -160456256#0 458845292 448911877#0 448911877#1 23623767#7 23623767#8 23623767#0 23623767#1 23623767#2 23623767#3 23623768#0 23623768#1 1188279664"/>
    </vehicle>
    <vehicle id="48" type="krauss" depart="96.00">
        <route edges="-59825187#2 1070604871 -59825169#1 1071574865 -160456256#1 -160456256#0 458845292 448911877#0"/>
    </vehicle>
    <vehicle id="49" type="krauss" depart="98.00">
        <route edges="E6 -E5 90400257 244354941 244354940 -244354946 E14 -59825169#2 -1070604871 59825187#2"/>
    </vehicle>
    <vehicle id="50" type="krauss" depart="100.00">
        <route edges="-1071574865 -59825169#0 59825150#2"/>
    </vehicle>
    <vehicle id="51" type="krauss" depart="102.00">
        <route edges="23623765#2 -23623758#1 -23623758#0 -746768889#1 23628327#1 244354939 E7 E8 48614463#0 48614463#1"/>
    </vehicle>
    <vehicle id="52" type="krauss" depart="104.00">
        <route edges="-59825169#1 1071574865 -160456256#1 -160456256#0 458845292 448911877#0"/>
    </vehicle>
    <vehicle id="53" type="krauss" depart="106.00">
        <route edges="-23623765#2 -23623765#1 -23623765#0 E12 -59825187#2 1070604871 -59825169#1 1071574865 -160456256#1 160456256#1"/>
    </vehicle>
    <vehicle id="54" type="krauss" depart="108.00">
        <route edges="160456256#0 160456256#1 -1071574865 59825169#1 -1070604871 -59825187#1 -E4 E3"/>
    </vehicle>
    <vehicle id="55" type="krauss" depart="110.00">
        <route edges="-59825155#1 -59825150#4 -59825150#3 -59825150#2 -59825150#1 -59825150#0 59825146 -E0 E1"/>
    </vehicle>
    <vehicle id="56" type="krauss" depart="112.00">
        <route edges="160456272#1 23623767#5 153580096#0 153580096#1 160456256#0 59825150#0 59825150#1 59825150#2 59825150#3 59825150#4 -59825155#0"/>
    </vehicle>
    <vehicle id="57" type="krauss" depart="114.00">
        <route edges="90400257 244354941 746768889#0 23628327#1 244354939 90400228 746768887"/>
    </vehicle>
    <vehicle id="58" type="krauss" depart="116.00">
        <route edges="-59825187#2 1070604871 -59825169#1 1071574865 -160456256#1 -160456256#0 458845292 448911877#0"/>
    </vehicle>
    <vehicle id="59" type="krauss" depart="118.00">
        <route edges="244354939 E7 E8 48614463#0 48614463#1 23623767#1 23623767#2 23623767#3 23623767#4 23623767#5 153580096#0 153580096#1 160456256#0 59825150#0 59825150#1 59825150#2 59825150#3 59825150#4 -59825150#4 -59825150#3"/>
    </vehicle>
    <vehicle id="60" type="krauss" depart="120.00">
        <route edges="23623765#2 -23623758#1 -23623758#0 -746768889#1 -746768889#0 244354940 -244354946 -E13 -59825187#2 -59825187#1"/>
    </vehicle>
    <vehicle id="61" type="krauss" depart="122.00">
        <route edges="23628327#0 746768889#1"/>
    </vehicle>
    <vehicle id="62" type="krauss" depart="124.00">
        <route edges="-1070604871 -59825187#1 -E4"/>
    </vehicle>
    <vehicle id="63" type="krauss" depart="126.00">
        <route edges="23623765#0 23623765#1 23623765#2 -23623758#1 -23623758#0 -746768889#1 -746768889#0 244354940 -244354946 E14 -59825169#2 -59825169#1 -59825169#0 59825150#2 59825150#3"/>
    </vehicle>
    <vehicle id="64" type="krauss" depart="128.00">
        <route edges="746768889#0 -746768889#0 244354940 -244354946 E14 -59825169#2 59825169#2"/>
    </vehicle>
    <vehicle id="65" type="krauss" depart="130.00">
        <route edges="-746768889#0 746768889#0 746768889#1 23623758#0 23623758#1 -23623758#1 -23623758#0"/>
    </vehicle>
    <vehicle id="66" type="krauss" depart="132.00">
        <route edges="746768889#0 -746768889#0 244354940 -244354946 -E13 -59825187#2 -59825187#1 -E4 E3"/>
    </vehicle>
    <vehicle id="67" type="krauss" depart="134.00">
        <route edges="-23623758#1 -23623758#0 -746768889#1 23628327#1 244354939 E7 E8 48614463#0 48614463#1 23623767#1 23623767#2 23623767#3 23623768#0 23623768#1 1188279664 -1188279664 160456272#0 160456272#1"/>
    </vehicle>
    <vehicle id="68" type="krauss" depart="136.00">
        <route edges="-23623758#0 -746768889#1 -746768889#0 244354940 -244354946 E14 -59825169#2 -59825169#1 -59825169#0 59825150#2 59825150#3 59825150#4 -59825155#0 59825155#0"/>
    </vehicle>
    <vehicle id="69" type="krauss" depart="138.00">
        <route edges="59825155#0 -59825150#4 -59825150#3 -59825150#2 -59825150#1 -59825150#0"/>
    </vehicle>
    <vehicle id="70" type="krauss" depart="140.00">
        <route edges="-1071574865 -59825169#0 59825150#2"/>
    </vehicle>
    <vehicle id="71" type="krauss" depart="142.00">
        <route edges="23623765#2 -23623758#1 -23623758#0 -746768889#1 23628327#1 244354939 E7 E8 48614463#0 48614463#1"/>
    </vehicle>
    <vehicle id="72" type="krauss" depart="144.00">
        <route edges="1071574865 -160456256#1 59825150#0 59825150#1 59825150#2 59825160#0 -59825160#0"/>
    </vehicle>
    <vehicle id="73" type="krauss" depart="146.00">
        <route edges="23623765#0 23623765#1 23623765#2 -23623758#1 -23623758#0 -746768889#1 -746768889#0 244354940 -244354946 E14 -59825169#2 -59825169#1 -59825169#0 59825150#2 59825150#3"/>
    </vehicle>
    <vehicle id="74" type="krauss" depart="148.00">
        <route edges="746768889#0 -746768889#0 244354940 -244354946 E14 -59825169#2 59825169#2"/>
    </vehicle>
    <vehicle id="75" type="krauss" depart="150.00">
        <route edges="E8 48614463#0 48614463#1 23623767#1 23623767#2 23623767#3 23623767#4 23623767#5 153580096#0 153580096#1 458845292 448911877#0 448911877#1"/>
    </vehicle>
    <vehicle id="76" type="krauss" depart="152.00">
        <route edges="160456272#1 23623767#5 153580096#0 153580096#1 160456256#0 59825150#0 59825150#1 59825150#2 59825150#3 59825150#4 -59825155#0"/>
    </vehicle>
    <vehicle id="77" type="krauss" depart="154.00">
        <route edges="-23623765#3 -23623758#1 -23623758#0 -746768889#1 -746768889#0 244354940 -244354946 E14 -59825169#2 -59825169#1 -59825169#0 59825150#2 59825160#0 59825160#1 -59825160#1"/>
    </vehicle>
    <vehicle id="78" type="krauss" depart="156.00">
        <route edges="-23623758#0 -746768889#1 -746768889#0 244354940 -244354946 E14 -59825169#2 -59825169#1 -59825169#0 59825150#2 59825150#3 59825150#4 -59825155#0 59825155#0"/>
    </vehicle>
    <vehicle id="79" type="krauss" depart="158.00">
        <route edges="-59825160#0 59825160#0 59825160#1 -59825160#1"/>
    </vehicle>
    <vehicle id="80" type="krauss" depart="160.00">
        <route edges="-23623758#0 -746768889#1 23628327#1 244354939 E7 E8 48614463#0 48614463#1 23623767#1 23623767#2 23623767#3 23623767#4 23623767#5 153580096#0 153580096#1 458845292 448911877#0"/>
    </vehicle>
    <vehicle id="81" type="krauss" depart="162.00">
        <route edges="23628327#0 746768889#1"/>
    </vehicle>
    <vehicle id="82" type="krauss" depart="164.00">
        <route edges="-1070604871 -59825187#1 -E4"/>
    </vehicle>
    <vehicle id="83" type="krauss" depart="166.00">
        <route edges="23623765#0 23623765#1 23623765#2 -23623758#1 -23623758#0 -746768889#1 -746768889#0 244354940 -244354946 E14 -59825169#2 -59825169#1 -59825169#0 59825150#2 59825150#3"/>
    </vehicle>
    <vehicle id="84" type="krauss" depart="168.00">
        <route edges="-59825155#2 -59825155#1 -59825150#4 -59825150#3 -59825150#2 -59825150#1"/>
    </vehicle>
    <vehicle id="85" type="krauss" depart="170.00">
        <route edges="23623765#0 23623765#1 23623765#2 -23623758#1 -23623758#0 -746768889#1 -746768889#0 244354940 -244354946 E14 -59825169#2 -59825169#1 -59825169#0 59825150#2"/>
    </vehicle>
    <vehicle id="86" type="krauss" depart="172.00">
        <route edges="-E5 90400257 244354941 746768889#0 746768889#1 23623758#0 23623758#1 -23623758#1"/>
    </vehicle>
    <vehicle id="87" type="krauss" depart="174.00">
        <route edges="59825160#0 -59825155#2 -59825155#1"/>
    </vehicle>
    <vehicle id="88" type="krauss" depart="176.00">
        <route edges="-23623765#1 -23623765#0 E12 -59825187#2 1070604871 -59825169#1 1071574865 -160456256#1 160456256#1"/>
    </vehicle>
    <vehicle id="89" type="krauss" depart="178.00">
        <route edges="1071574865 -160456256#1 -160456256#0 458845292 448911877#0 448911877#1 23623767#7 160456271#0 160456271#1"/>
    </vehicle>
    <vehicle id="90" type="krauss" depart="180.00">
        <route edges="59825150#1 59825169#0 59825169#1 -1070604871 -59825187#1 -E4 -E2"/>
    </vehicle>
    <vehicle id="91" type="krauss" depart="182.00">
        <route edges="E7 -E5 90400257 244354941 746768889#0 746768889#1 23623758#0 23623758#1 -23623765#2"/>
    </vehicle>
    <vehicle id="92" type="krauss" depart="184.00">
        <route edges="-E8 -E6"/>
    </vehicle>
    <vehicle id="93" type="krauss" depart="186.00">
        <route edges="59825187#1 1070604871 -59825169#1"/>
    </vehicle>
    <vehicle id="94" type="krauss" depart="188.00">
        <route edges="-59825150#4 -59825150#3 -59825150#2 -59825150#1 -59825150#0 -160456256#0 458845292 448911877#0 448911877#1 23623767#7 160456271#0"/>
    </vehicle>
    <vehicle id="95" type="krauss" depart="190.00">
        <route edges="90400228 E6 -E5 90400257 244354941 244354940"/>
    </vehicle>
    <vehicle id="96" type="krauss" depart="192.00">
        <route edges="448911877#0 448911877#1 23623767#7 160456271#0 160456271#1"/>
    </vehicle>
    <vehicle id="97" type="krauss" depart="194.00">
        <route edges="153580096#1 160456256#0 160456256#1 -1071574865 59825169#1 -1070604871 59825187#2"/>
    </vehicle>
    <vehicle id="98" type="krauss" depart="196.00">
        <route edges="23623765#1 23623765#2 -23623758#1 -23623758#0 -746768889#1 -746768889#0 244354940 -244354946 -E13 -59825187#2 -59825187#1 -E4 -160456256#2"/>
    </vehicle>
    <vehicle id="99" type="krauss" depart="198.00">
        <route edges="E8 48614463#0 48614463#1 23623767#1 23623767#2 23623767#3 23623767#4 23623767#5 153580096#0 153580096#1 160456256#0 160456256#1 -1071574865 59825169#1 59825169#2"/>
    </vehicle>
    <vehicle id="100" type="krauss" depart="200.00">
        <route edges="E6 -E5 90400257"/>
    </vehicle>
    <vehicle id="101" type="krauss" depart="202.00">
        <route edges="59825169#2 -59825169#2 -59825169#1 -59825169#0 59825150#2 59825150#3 59825150#4 -59825150#4"/>
    </vehicle>
    <vehicle id="102" type="krauss" depart="204.00">
        <route edges="160456272#0 160456272#1 23623767#5 153580096#0 153580096#1 160456256#0 59825150#0 59825150#1 59825150#2 59825160#0 -59825160#0"/>
    </vehicle>
    <vehicle id="103" type="krauss" depart="206.00">
        <route edges="-E8 -E5 90400257 244354941 746768889#0 746768889#1 23623758#0 23623758#1 -23623758#1 -23623758#0"/>
    </vehicle>
    <vehicle id="104" type="krauss" depart="208.00">
        <route edges="-23623765#1 -23623765#0 E12 -59825187#2 1070604871 -59825169#1 -59825169#0 59825150#2 59825160#0 59825160#1 -59825160#1"/>
    </vehicle>
    <vehicle id="105" type="krauss" depart="210.00">
        <route edges="-59825169#1 -59825169#0 59825150#2 59825160#0"/>
    </vehicle>
    <vehicle id="106" type="krauss" depart="212.00">
        <route edges="160456256#0"/>
    </vehicle>
    <vehicle id="107" type="krauss" depart="214.00">
        <route edges="E5 E8"/>
    </vehicle>
    <vehicle id="108" type="krauss" depart="216.00">
        <route edges="23623765#2 -23623758#1 -23623758#0 -746768889#1 -746768889#0 244354940 -244354946 E14 -59825169#2 -59825169#1 -59825169#0 59825150#2"/>
    </vehicle>
    <vehicle id="109" type="krauss" depart="218.00">
        <route edges="-59825150#1 -59825150#0 160456256#1 -1071574865 59825169#1 -1070604871 -59825187#1 -E4 -E2"/>
    </vehicle>
    <vehicle id="110" type="krauss" depart="220.00">
        <route edges="E6 -E5 90400257 244354941 244354940 -244354946 244354946 23628327#0"/>
    </vehicle>
    <vehicle id="111" type="krauss" depart="222.00">
        <route edges="23623765#1 23623765#2 -23623758#1 -23623758#0 -746768889#1 -746768889#0 244354940 -244354946 E14 -59825169#2 -59825169#1 -59825169#0 59825150#2 59825150#3 59825150#4"/>
    </vehicle>
    <vehicle id="112" type="krauss" depart="224.00">
        <route edges="E7 E8 48614463#0 48614463#1 23623767#1 23623767#2 23623767#3 23623767#4 23623767#5 153580096#0 153580096#1 458845292"/>
    </vehicle>
    <vehicle id="113" type="krauss" depart="226.00">
        <route edges="-59825169#2 -59825169#1 1071574865 -160456256#1 -160456256#0 458845292 448911877#0 448911877#1 23623767#7 23623767#8 23623767#0 23623767#1 23623767#2 23623767#3 23623768#0 23623768#1"/>
    </vehicle>
    <vehicle id="114" type="krauss" depart="228.00">
        <route edges="48614463#0 48614463#1 23623767#1 23623767#2 23623767#3 23623767#4 23623767#5 153580096#0 153580096#1 160456256#0 59825150#0 59825150#1 59825150#2 59825150#3 59825150#4"/>
    </vehicle>
    <vehicle id="115" type="krauss" depart="230.00">
        <route edges="-23623758#1 -23623758#0 -746768889#1 -746768889#0 244354940 -244354946 E14 -59825169#2 -59825169#1 -59825169#0 59825150#2 59825160#0 -59825155#2 -59825155#1"/>
    </vehicle>
    <vehicle id="116" type="krauss" depart="232.00">
        <route edges="23628327#0 23628327#1 244354939 E7 E8 48614463#0 48614463#1"/>
    </vehicle>
    <vehicle id="117" type="krauss" depart="234.00">
        <route edges="-59825160#0 -59825150#2 -59825150#1 -59825150#0"/>
    </vehicle>
    <vehicle id="118" type="krauss" depart="236.00">
        <route edges="746768889#1 23623758#0 23623758#1 -23623758#1 -23623758#0 -746768889#1 -746768889#0 244354940 -244354946 E14 -59825169#2 -59825169#1"/>
    </vehicle>
    <vehicle id="119" type="krauss" depart="238.00">
        <route edges="23628327#0 -746768889#0 244354940"/>
    </vehicle>
    <vehicle id="120" type="krauss" depart="240.00">
        <route edges="-59825187#1 -E4 -160456256#2 -160456256#1 59825150#0 59825150#1 59825150#2 59825160#0 59825160#1"/>
    </vehicle>
    <vehicle id="121" type="krauss" depart="242.00">
        <route edges="23623758#1 -23623758#1 -23623758#0 -746768889#1 23628327#1 244354939 E7 -E5 90400257"/>
    </vehicle>
    <vehicle id="122" type="krauss" depart="244.00">
        <route edges="-59825155#1 -59825150#4 -59825150#3 -59825150#2 -59825150#1 -59825150#0 59825150#0 59825150#1"/>
    </vehicle>
    <vehicle id="123" type="krauss" depart="246.00">
        <route edges="-59825160#1 -59825160#0 -59825150#2 -59825150#1 -59825150#0 -160456256#0 458845292 448911877#0 448911877#1 23623767#7 23623767#8 23623767#0 23623767#1 23623767#2 23623767#3 23623767#4 23623767#5 153580096#0"/>
    </vehicle>
    <vehicle id="124" type="krauss" depart="248.00">
        <route edges="448911877#1 23623767#7 23623767#8 23623767#0 23623767#1 23623767#2 23623767#3 23623767#4 23623767#5 153580096#0 153580096#1 160456256#0 160456256#1 -1071574865 59825169#1 -1070604871 -59825187#1 -E4 -E2"/>
    </vehicle>
    <vehicle id="125" type="krauss" depart="250.00">
        <route edges="-746768889#1 -746768889#0 244354940 -244354946 E14 -59825169#2 -59825169#1 -59825169#0 59825150#2 59825150#3 59825150#4 -59825155#0 59825155#0"/>
    </vehicle>
    <vehicle id="126" type="krauss" depart="252.00">
        <route edges="-23623758#0 -746768889#1 23628327#1 244354939 E7 E8 48614463#0 48614463#1 23623767#1 23623767#2 23623767#3 23623767#4 23623767#5 23623767#6 23623767#7 160456271#0 160456271#1"/>
    </vehicle>
    <vehicle id="127" type="krauss" depart="254.00">
        <route edges="E8"/>
    </vehicle>
    <vehicle id="128" type="krauss" depart="256.00">
        <route edges="-23623758#0 -746768889#1 -746768889#0 244354940 -244354946 E14 -59825169#2 -59825169#1 -59825169#0 59825150#2 59825160#0 -59825160#0"/>
    </vehicle>
    <vehicle id="129" type="krauss" depart="258.00">
        <route edges="244354939 90400228 E6 -E7"/>
    </vehicle>
    <vehicle id="130" type="krauss" depart="260.00">
        <route edges="746768889#0 23628327#1 244354939 90400228 746768887"/>
    </vehicle>
    <vehicle id="131" type="krauss" depart="262.00">
        <route edges="-E5 90400257 244354941 244354940 -244354946 E14 -59825169#2 -59825169#1 -59825169#0 59825150#2 59825150#3 59825150#4 -59825150#4 -59825150#3"/>
    </vehicle>
    <vehicle id="132" type="krauss" depart="264.00">
        <route edges="59825169#1 -59825169#1 1071574865 -160456256#1 59825150#0"/>
    </vehicle>
    <vehicle id="133" type="krauss" depart="266.00">
        <route edges="244354939 E7"/>
    </vehicle>
    <vehicle id="134" type="krauss" depart="268.00">
        <route edges="448911877#0 448911877#1 23623767#7 23623767#8 23623767#0 23623767#1 23623767#2 23623767#3 23623767#4 23623767#5 153580096#0 153580096#1 160456256#0 160456256#1 -1071574865 59825169#1 -1070604871"/>
    </vehicle>
    <vehicle id="135" type="krauss" depart="270.00">
        <route edges="59825160#1 -59825160#1 -59825160#0 -59825150#2 59825169#0 59825169#1 -1070604871 -59825187#1 -E4 -E2"/>
    </vehicle>
    <vehicle id="136" type="krauss" depart="272.00">
        <route edges="448911877#1 23623767#7 23623767#8 23623767#0 23623767#1 23623767#2 23623767#3 23623767#4 23623767#5 153580096#0 153580096#1 160456256#0 59825146 -E0 E1"/>
    </vehicle>
    <vehicle id="137" type="krauss" depart="274.00">
        <route edges="244354941"/>
    </vehicle>
    <vehicle id="138" type="krauss" depart="276.00">
        <route edges="-23623765#2 -23623765#1 -23623765#0 E12 E13 244354946 23628327#0 746768889#1 23623758#0 23623758#1 23623765#3"/>
    </vehicle>
    <vehicle id="139" type="krauss" depart="278.00">
        <route edges="458845292 448911877#0 448911877#1 23623767#7 23623767#8 23623767#0 23623767#1 23623767#2 23623767#3 23623767#4 23623767#5 153580096#0 153580096#1 160456256#0 59825150#0 59825150#1 59825150#2"/>
    </vehicle>
    <vehicle id="140" type="krauss" depart="280.00">
        <route edges="59825150#0 59825150#1 59825150#2 59825160#0 -59825155#2"/>
    </vehicle>
    <vehicle id="141" type="krauss" depart="282.00">
        <route edges="244354941 244354940 -244354946 -E13 -59825187#2 -59825187#1"/>
    </vehicle>
    <vehicle id="142" type="krauss" depart="284.00">
        <route edges="448911877#0 448911877#1 23623767#7 23623767#8 23623767#0 23623767#1 23623767#2 23623767#3 23623767#4 23623767#5 153580096#0 153580096#1 160456256#0 59825146 -E0 59825183"/>
    </vehicle>
    <vehicle id="143" type="krauss" depart="286.00">
        <route edges="244354940 -244354946 244354946 23628327#0 23628327#1 244354939 90400228 746768887 746768895"/>
    </vehicle>
    <vehicle id="144" type="krauss" depart="288.00">
        <route edges="-59825187#2 1070604871 -59825169#1 -59825169#0 59825150#2 59825150#3 59825150#4"/>
    </vehicle>
    <vehicle id="145" type="krauss" depart="290.00">
        <route edges="-1070604871 1070604871 -59825169#1 -59825169#0 59825150#2 59825150#3 59825150#4 59825155#1"/>
    </vehicle>
    <vehicle id="146" type="krauss" depart="292.00">
        <route edges="244354941 244354940 -244354946 -E13 -59825187#2 -59825187#1"/>
    </vehicle>
    <vehicle id="147" type="krauss" depart="294.00">
        <route edges="-59825150#3 -59825150#2 -59825150#1"/>
    </vehicle>
    <vehicle id="148" type="krauss" depart="296.00">
        <route edges="153580096#0 153580096#1 160456256#0 160456256#1 -1071574865 59825169#1 -1070604871"/>
    </vehicle>
    <vehicle id="149" type="krauss" depart="298.00">
        <route edges="-23623758#0 -746768889#1 -746768889#0 746768889#0"/>
    </vehicle>
    <vehicle id="150" type="krauss" depart="300.00">
        <route edges="90400228 E6 -E5 90400257 244354941 746768889#0 746768889#1 23623758#0 23623758#1 23623765#3"/>
    </vehicle>
    <vehicle id="151" type="krauss" depart="302.00">
        <route edges="23623765#1 23623765#2 -23623758#1 -23623758#0 -746768889#1 23628327#1 244354939 90400228 E6"/>
    </vehicle>
    <vehicle id="152" type="krauss" depart="304.00">
        <route edges="-59825150#1 -59825150#0"/>
    </vehicle>
    <vehicle id="153" type="krauss" depart="306.00">
        <route edges="-746768889#0 746768889#0 746768889#1"/>
    </vehicle>
    <vehicle id="154" type="krauss" depart="308.00">
        <route edges="59825155#2 -59825160#0 -59825150#2 59825169#0 59825169#1 -1070604871 59825187#2"/>
    </vehicle>
    <vehicle id="155" type="krauss" depart="310.00">
        <route edges="90400228 E6 E8 48614463#0 48614463#1 23623767#1 23623767#2 23623767#3 23623767#4 23623767#5 153580096#0 153580096#1 160456256#0 59825150#0 59825150#1 59825150#2 59825160#0 -59825160#0"/>
    </vehicle>
    <vehicle id="156" type="krauss" depart="312.00">
        <route edges="23623765#0 23623765#1 23623765#2 -23623758#1 -23623758#0 -746768889#1 23628327#1 244354939 90400228"/>
    </vehicle>
    <vehicle id="157" type="krauss" depart="314.00">
        <route edges="59825169#0 59825169#1 59825169#2 -59825169#2"/>
    </vehicle>
    <vehicle id="158" type="krauss" depart="316.00">