<?xml version="1.0" encoding="UTF-8"?>

<!-- generated on 2024-11-20 01:31:38 by Eclipse SUMO duarouter Version v1_21_0+0546-c8b591674a3
<duarouterConfiguration xmlns:xsi="http://www.w3.org/2001/XMLSchema-instance" xsi:noNamespaceSchemaLocation="http://sumo.dlr.de/xsd/duarouterConfiguration.xsd">

    <input>
        <net-file value="halmstad.net.xml"/>
        <route-files value="halmstad.trips.xml"/>
    </input>

    <output>
        <output-file value="halmstad.rou.xml"/>
    </output>

</duarouterConfiguration>
-->

<routes xmlns:xsi="http://www.w3.org/2001/XMLSchema-instance" xsi:noNamespaceSchemaLocation="http://sumo.dlr.de/xsd/routes_file.xsd">
    <vehicle id="0" type="krauss_0.5" depart="0.00">
        <route edges="244354941 746768889#0 23628327#1 244354939 E7 E8 48614463#0 48614463#1 23623767#1 23623767#2 23623767#3 23623767#4 23623767#5 153580096#0 153580096#1 160456256#0 -160456256#0"/>
    </vehicle>
    <vehicle id="1" type="krauss_0.75" depart="2.00">
        <route edges="-59825169#2 -59825169#1 -59825169#0 59825150#2 59825160#0 59825160#1 -59825160#1"/>
    </vehicle>
    <vehicle id="3" type="krauss_0.5" depart="6.00">
        <route edges="746768889#1 23623758#0 23623758#1 -23623765#2 -23623765#1 -23623765#0"/>
    </vehicle>
    <vehicle id="4" type="krauss_0.75" depart="8.00">
        <route edges="1071574865 -160456256#1 -160456256#0"/>
    </vehicle>
    <vehicle id="6" type="krauss_0.5" depart="12.00">
        <route edges="-1188279664 160456272#0 160456272#1 23623767#5 153580096#0 153580096#1 160456256#0 59825150#0 59825150#1 59825150#2 59825160#0 -59825155#2"/>
    </vehicle>
    <vehicle id="7" type="krauss_0.75" depart="14.00">
        <route edges="244354946 23628327#0 746768889#1 23623758#0 23623758#1 23623765#3"/>
    </vehicle>
    <vehicle id="9" type="krauss_0.5" depart="18.00">
        <route edges="59825160#1 -59825160#1 -59825160#0 -59825150#2 59825169#0 59825169#1 -1070604871"/>
    </vehicle>
    <vehicle id="10" type="krauss_0.75" depart="20.00">
        <route edges="59825160#0 -59825160#0 -59825150#2 -59825150#1 -59825150#0 59825150#0"/>
    </vehicle>
    <vehicle id="11" type="cacc" depart="22.00">
        <route edges="-E3 -160456256#2 -160456256#1 59825150#0 59825150#1 59825150#2 59825150#3 59825150#4 -59825150#4 -59825150#3"/>
    </vehicle>
    <vehicle id="12" type="krauss_0.5" depart="24.00">
        <route edges="E5 -E7 90400228 E6 -E5"/>
    </vehicle>
    <vehicle id="13" type="krauss_0.75" depart="26.00">
        <route edges="-23623765#1"/>
    </vehicle>
    <vehicle id="15" type="krauss_0.5" depart="30.00">
        <route edges="59825160#0 -59825160#0 59825150#3"/>
    </vehicle>
    <vehicle id="16" type="krauss_0.75" depart="32.00">
        <route edges="23623765#0 23623765#1 23623765#2 -23623758#1 -23623758#0 -746768889#1 23628327#1 244354939 90400228 E6"/>
    </vehicle>
    <vehicle id="20" type="cacc" depart="40.00">
        <route edges="48614463#1 23623767#1 23623767#2 23623767#3 23623767#4 23623767#5 153580096#0 153580096#1 160456256#0 160456256#1 -1071574865 59825169#1 -1070604871 -59825187#1 -E4 -160456256#2"/>
    </vehicle>
    <vehicle id="22" type="krauss_0.75" depart="44.00">
        <route edges="-23623758#1 -23623758#0 -746768889#1 23628327#1 244354939 E7 E8 48614463#0 48614463#1 23623767#1 23623767#2 23623767#3 23623767#4 23623767#5 153580096#0 153580096#1 160456256#0 160456256#1 -1071574865 -59825169#0"/>
    </vehicle>
    <vehicle id="23" type="cacc" depart="46.00">
        <route edges="-23623765#1 -23623765#0 23623765#0 23623765#1 23623765#2 -23623758#1 -23623758#0 -746768889#1 -746768889#0"/>
    </vehicle>
    <vehicle id="24" type="krauss_0.5" depart="48.00">
        <route edges="244354941 746768889#0 23628327#1 244354939 E7 E8 48614463#0 48614463#1 23623767#1 23623767#2 23623767#3 23623767#4 23623767#5 153580096#0 153580096#1 160456256#0 160456256#1 -1071574865 59825169#1 -1070604871 1070604871"/>
    </vehicle>
    <vehicle id="25" type="krauss_0.75" depart="50.00">
        <route edges="-E5 90400257 244354941 746768889#0 23628327#1 244354939 E7 E8 48614463#0 48614463#1 23623767#1 23623767#2 23623767#3 23623767#4 23623767#5 153580096#0 153580096#1 160456256#0 59825150#0 59825150#1 59825150#2 59825160#0 -59825160#0"/>
    </vehicle>
    <vehicle id="26" type="cacc" depart="52.00">
        <route edges="-59825169#1 59825169#1 -1070604871 -59825187#1 -E4 E3 E1"/>
    </vehicle>
    <vehicle id="27" type="krauss_0.5" depart="54.00">
        <route edges="244354946 23628327#0 -746768889#0 244354940"/>
    </vehicle>
    <vehicle id="28" type="krauss_0.75" depart="56.00">
        <route edges="-59825150#3 59825150#3"/>
    </vehicle>
    <vehicle id="29" type="cacc" depart="58.00">
        <route edges="-59825150#2 59825169#0 1071574865"/>
    </vehicle>
    <vehicle id="30" type="krauss_0.5" depart="60.00">
        <route edges="E8 48614463#0 48614463#1 23623767#1 23623767#2 23623767#3 23623767#4 23623767#5 153580096#0 153580096#1 458845292 448911877#0"/>
    </vehicle>
    <vehicle id="31" type="krauss_0.75" depart="62.00">
        <route edges="23623765#2 -23623758#1 -23623758#0 -746768889#1 23628327#1 244354939 E7 E8 48614463#0 48614463#1"/>
    </vehicle>
    <vehicle id="32" type="cacc" depart="64.00">
        <route edges="59825169#2 -59825169#2 -59825169#1 -59825169#0 59825150#2 59825150#3 59825150#4 59825155#1 59825155#2"/>
    </vehicle>
    <vehicle id="33" type="krauss_0.5" depart="66.00">
        <route edges="-59825160#0 -59825150#2 -59825150#1 -59825150#0 -160456256#0"/>
    </vehicle>
    <vehicle id="34" type="krauss_0.75" depart="68.00">
        <route edges="-746768889#1 23628327#1 244354939 E7 E8 48614463#0 48614463#1 23623767#1 23623767#2 23623767#3 23623767#4 23623767#5 153580096#0 153580096#1 160456256#0 160456256#1 -1071574865 59825169#1 -1070604871 -59825187#1"/>
    </vehicle>
    <vehicle id="35" type="cacc" depart="70.00">
        <route edges="-59825155#1 -59825150#4 -59825150#3 -59825150#2 59825169#0 59825169#1 -1070604871 -59825187#1 -E4 E3 E1"/>
    </vehicle>
    <vehicle id="37" type="krauss_0.75" depart="74.00">
        <route edges="448911877#0 448911877#1 23623767#7 23623767#8 23623767#0 23623767#1 23623767#2 23623767#3 23623767#4 23623767#5 153580096#0"/>
    </vehicle>
    <vehicle id="38" type="cacc" depart="76.00">
        <route edges="90400257 244354941 746768889#0 23628327#1 244354939 E7 E8 48614463#0 48614463#1 23623767#1 23623767#2 23623767#3 23623767#4 23623767#5 23623767#6 23623767#7 160456271#0 160456271#1"/>
    </vehicle>
    <vehicle id="39" type="krauss_0.5" depart="78.00">
        <route edges="-59825169#1"/>
    </vehicle>
    <vehicle id="40" type="krauss_0.75" depart="80.00">
        <route edges="23623765#2 -23623758#1 -23623758#0 -746768889#1 23628327#1 244354939 E7 E8 48614463#0 48614463#1 23623767#1 23623767#2 23623767#3 23623767#4 23623767#5 153580096#0 153580096#1 160456256#0 160456256#1 -1071574865 59825169#1 -1070604871 -59825187#1"/>
    </vehicle>
    <vehicle id="41" type="cacc" depart="82.00">
        <route edges="23628327#0 746768889#1"/>
    </vehicle>
    <vehicle id="42" type="krauss_0.5" depart="84.00">
        <route edges="-E8 -E7 90400228 E6 E8 48614463#0 48614463#1 23623767#1 23623767#2 23623767#3 23623767#4 23623767#5 153580096#0 153580096#1 160456256#0 59825150#0 59825150#1 59825150#2 59825160#0 59825160#1 -59825160#1"/>
    </vehicle>
    <vehicle id="44" type="cacc" depart="88.00">
        <route edges="-23623765#1 -23623765#0 23623765#0 23623765#1 23623765#2 -23623758#1 -23623758#0 -746768889#1 23628327#1 244354939 E7 E8 48614463#0 48614463#1 23623767#1 23623767#2 23623767#3 23623767#4 23623767#5 153580096#0 153580096#1 160456256#0 160456256#1 -1071574865 59825169#1 -1070604871 -59825187#1 -E4 -160456256#2"/>
    </vehicle>
    <vehicle id="45" type="krauss_0.5" depart="90.00">
        <route edges="-23623765#2 -23623765#1 -23623765#0 23623765#0 23623765#1 23623765#2 -23623758#1 -23623758#0 -746768889#1 23628327#1 244354939 E7 -E5 90400257 244354941"/>
    </vehicle>
    <vehicle id="46" type="krauss_0.75" depart="92.00">
        <route edges="59825155#2 -59825160#0 -59825150#2 -59825150#1 -59825150#0 -160456256#0 160456256#0"/>
    </vehicle>
    <vehicle id="47" type="cacc" depart="94.00">
        <route edges="-160456256#2 -160456256#1 -160456256#0 458845292 448911877#0 448911877#1 23623767#7 23623767#8 23623767#0 23623767#1 23623767#2 23623767#3 23623768#0 23623768#1 1188279664"/>
    </vehicle>
    <vehicle id="49" type="krauss_0.75" depart="98.00">
        <route edges="E6 E8 48614463#0 48614463#1 23623767#1 23623767#2 23623767#3 23623767#4 23623767#5 153580096#0 153580096#1 160456256#0 160456256#1 -1071574865 59825169#1 -1070604871 59825187#2"/>
    </vehicle>
    <vehicle id="50" type="cacc" depart="100.00">
        <route edges="-1071574865 -59825169#0 59825150#2"/>
    </vehicle>
    <vehicle id="52" type="krauss_0.75" depart="104.00">
        <route edges="-59825169#1 1071574865 -160456256#1 -160456256#0 458845292 448911877#0"/>
    </vehicle>
    <vehicle id="53" type="cacc" depart="106.00">
        <route edges="-23623765#2 -23623765#1 -23623765#0 23623765#0 23623765#1 23623765#2 -23623758#1 -23623758#0 -746768889#1 23628327#1 244354939 E7 E8 48614463#0 48614463#1 23623767#1 23623767#2 23623767#3 23623767#4 23623767#5 153580096#0 153580096#1 160456256#0 160456256#1"/>
    </vehicle>
    <vehicle id="54" type="krauss_0.5" depart="108.00">
        <route edges="160456256#0 160456256#1 -1071574865 59825169#1 -1070604871 -59825187#1 -E4 E3"/>
    </vehicle>
    <vehicle id="56" type="cacc" depart="112.00">
        <route edges="160456272#1 23623767#5 153580096#0 153580096#1 160456256#0 59825150#0 59825150#1 59825150#2 59825150#3 59825150#4 -59825155#0"/>
    </vehicle>
    <vehicle id="57" type="krauss_0.5" depart="114.00">
        <route edges="90400257 244354941 746768889#0 23628327#1 244354939 90400228 746768887"/>
    </vehicle>
    <vehicle id="58" type="krauss_0.75" depart="116.00">
        <route edges="-59825187#2 1070604871 -59825169#1 1071574865 -160456256#1 -160456256#0 458845292 448911877#0"/>
    </vehicle>
    <vehicle id="59" type="cacc" depart="118.00">
        <route edges="244354939 E7 E8 48614463#0 48614463#1 23623767#1 23623767#2 23623767#3 23623767#4 23623767#5 153580096#0 153580096#1 160456256#0 59825150#0 59825150#1 59825150#2 59825150#3 59825150#4 -59825150#4 -59825150#3"/>
    </vehicle>
    <vehicle id="62" type="cacc" depart="124.00">
        <route edges="-1070604871 -59825187#1 -E4"/>
    </vehicle>
    <vehicle id="64" type="krauss_0.75" depart="128.00">
        <route edges="746768889#0 23628327#1 244354939 E7 E8 48614463#0 48614463#1 23623767#1 23623767#2 23623767#3 23623767#4 23623767#5 153580096#0 153580096#1 160456256#0 160456256#1 -1071574865 59825169#1 59825169#2"/>
    </vehicle>
    <vehicle id="65" type="cacc" depart="130.00">
        <route edges="-746768889#0 746768889#0 746768889#1 23623758#0 23623758#1 -23623758#1 -23623758#0"/>
    </vehicle>
    <vehicle id="66" type="krauss_0.5" depart="132.00">
        <route edges="746768889#0 23628327#1 244354939 E7 E8 48614463#0 48614463#1 23623767#1 23623767#2 23623767#3 23623767#4 23623767#5 153580096#0 153580096#1 160456256#0 160456256#1 -1071574865 59825169#1 -1070604871 -59825187#1 -E4 E3"/>
    </vehicle>
    <vehicle id="67" type="krauss_0.75" depart="134.00">
        <route edges="-23623758#1 -23623758#0 -746768889#1 23628327#1 244354939 E7 E8 48614463#0 48614463#1 23623767#1 23623767#2 23623767#3 23623768#0 23623768#1 1188279664 -1188279664 160456272#0 160456272#1"/>
    </vehicle>
    <vehicle id="68" type="cacc" depart="136.00">
        <route edges="-23623758#0 -746768889#1 23628327#1 244354939 E7 E8 48614463#0 48614463#1 23623767#1 23623767#2 23623767#3 23623767#4 23623767#5 153580096#0 153580096#1 160456256#0 59825150#0 59825150#1 59825150#2 59825150#3 59825150#4 -59825155#0 59825155#0"/>
    </vehicle>
    <vehicle id="69" type="krauss_0.5" depart="138.00">
        <route edges="59825155#0 -59825150#4 -59825150#3 -59825150#2 -59825150#1 -59825150#0"/>
    </vehicle>
    <vehicle id="72" type="krauss_0.5" depart="144.00">
        <route edges="1071574865 -160456256#1 59825150#0 59825150#1 59825150#2 59825160#0 -59825160#0"/>
    </vehicle>
    <vehicle id="73" type="krauss_0.75" depart="146.00">
        <route edges="23623765#0 23623765#1 23623765#2 -23623758#1 -23623758#0 -746768889#1 23628327#1 244354939 E7 E8 48614463#0 48614463#1 23623767#1 23623767#2 23623767#3 23623767#4 23623767#5 153580096#0 153580096#1 160456256#0 59825150#0 59825150#1 59825150#2 59825150#3"/>
    </vehicle>
    <vehicle id="75" type="krauss_0.5" depart="150.00">
        <route edges="E8 48614463#0 48614463#1 23623767#1 23623767#2 23623767#3 23623767#4 23623767#5 153580096#0 153580096#1 458845292 448911877#0 448911877#1"/>
    </vehicle>
    <vehicle id="77" type="cacc" depart="154.00">
        <route edges="-23623765#3 -23623758#1 -23623758#0 -746768889#1 23628327#1 244354939 E7 E8 48614463#0 48614463#1 23623767#1 23623767#2 23623767#3 23623767#4 23623767#5 153580096#0 153580096#1 160456256#0 59825150#0 59825150#1 59825150#2 59825160#0 59825160#1 -59825160#1"/>
    </vehicle>
    <vehicle id="79" type="krauss_0.75" depart="158.00">
        <route edges="-59825160#0 59825160#0 59825160#1 -59825160#1"/>
    </vehicle>
    <vehicle id="80" type="cacc" depart="160.00">
        <route edges="-23623758#0 -746768889#1 23628327#1 244354939 E7 E8 48614463#0 48614463#1 23623767#1 23623767#2 23623767#3 23623767#4 23623767#5 153580096#0 153580096#1 458845292 448911877#0"/>
    </vehicle>
    <vehicle id="84" type="krauss_0.5" depart="168.00">
        <route edges="-59825155#2 -59825155#1 -59825150#4 -59825150#3 -59825150#2 -59825150#1"/>
    </vehicle>
    <vehicle id="87" type="krauss_0.5" depart="174.00">
        <route edges="59825160#0 -59825155#2 -59825155#1"/>
    </vehicle>
    <vehicle id="88" type="krauss_0.75" depart="176.00">
        <route edges="-23623765#1 -23623765#0 23623765#0 23623765#1 23623765#2 -23623758#1 -23623758#0 -746768889#1 23628327#1 244354939 E7 E8 48614463#0 48614463#1 23623767#1 23623767#2 23623767#3 23623767#4 23623767#5 153580096#0 153580096#1 160456256#0 160456256#1"/>
    </vehicle>
    <vehicle id="89" type="cacc" depart="178.00">
        <route edges="1071574865 -160456256#1 -160456256#0 458845292 448911877#0 448911877#1 23623767#7 160456271#0 160456271#1"/>
    </vehicle>
    <vehicle id="91" type="krauss_0.75" depart="182.00">
        <route edges="E7 -E5 90400257 244354941 746768889#0 746768889#1 23623758#0 23623758#1 -23623765#2"/>
    </vehicle>
    <vehicle id="92" type="cacc" depart="184.00">
        <route edges="-E8 -E6"/>
    </vehicle>
    <vehicle id="93" type="krauss_0.5" depart="186.00">
        <route edges="59825187#1 1070604871 -59825169#1"/>
    </vehicle>
    <vehicle id="94" type="krauss_0.75" depart="188.00">
        <route edges="-59825150#4 -59825150#3 -59825150#2 -59825150#1 -59825150#0 -160456256#0 458845292 448911877#0 448911877#1 23623767#7 160456271#0"/>
    </vehicle>
    <vehicle id="97" type="krauss_0.75" depart="194.00">
        <route edges="153580096#1 160456256#0 160456256#1 -1071574865 59825169#1 -1070604871 59825187#2"/>
    </vehicle>
    <vehicle id="98" type="cacc" depart="196.00">
        <route edges="23623765#1 23623765#2 -23623758#1 -23623758#0 -746768889#1 23628327#1 244354939 E7 E8 48614463#0 48614463#1 23623767#1 23623767#2 23623767#3 23623767#4 23623767#5 153580096#0 153580096#1 160456256#0 160456256#1 -1071574865 59825169#1 -1070604871 -59825187#1 -E4 -160456256#2"/>
    </vehicle>
    <vehicle id="99" type="krauss_0.5" depart="198.00">
        <route edges="E8 48614463#0 48614463#1 23623767#1 23623767#2 23623767#3 23623767#4 23623767#5 153580096#0 153580096#1 160456256#0 160456256#1 -1071574865 59825169#1 59825169#2"/>
    </vehicle>
    <vehicle id="100" type="krauss_0.75" depart="200.00">
        <route edges="E6 -E5 90400257"/>
    </vehicle>
    <vehicle id="101" type="cacc" depart="202.00">
        <route edges="59825169#2 -59825169#2 -59825169#1 -59825169#0 59825150#2 59825150#3 59825150#4 -59825150#4"/>
    </vehicle>
    <vehicle id="102" type="krauss_0.5" depart="204.00">
        <route edges="160456272#0 160456272#1 23623767#5 153580096#0 153580096#1 160456256#0 59825150#0 59825150#1 59825150#2 59825160#0 -59825160#0"/>
    </vehicle>
    <vehicle id="103" type="krauss_0.75" depart="206.00">
        <route edges="-E8 -E5 90400257 244354941 746768889#0 746768889#1 23623758#0 23623758#1 -23623758#1 -23623758#0"/>
    </vehicle>
    <vehicle id="105" type="krauss_0.5" depart="210.00">
        <route edges="-59825169#1 -59825169#0 59825150#2 59825160#0"/>
    </vehicle>
    <vehicle id="106" type="krauss_0.75" depart="212.00">
        <route edges="160456256#0"/>
    </vehicle>
    <vehicle id="107" type="cacc" depart="214.00">
        <route edges="E5 E8"/>
    </vehicle>
    <vehicle id="108" type="krauss_0.5" depart="216.00">
        <route edges="23623765#2 -23623758#1 -23623758#0 -746768889#1 23628327#1 244354939 E7 E8 48614463#0 48614463#1 23623767#1 23623767#2 23623767#3 23623767#4 23623767#5 153580096#0 153580096#1 160456256#0 59825150#0 59825150#1 59825150#2"/>
    </vehicle>
    <vehicle id="109" type="krauss_0.75" depart="218.00">
        <route edges="-59825150#1 -59825150#0 160456256#1 -1071574865 59825169#1 -1070604871 -59825187#1 -E4 -E2"/>
    </vehicle>
    <vehicle id="110" type="cacc" depart="220.00">
        <route edges="E6 -E5 90400257 244354941 244354940 -244354946 244354946 23628327#0"/>
    </vehicle>
    <vehicle id="111" type="krauss_0.5" depart="222.00">
        <route edges="23623765#1 23623765#2 -23623758#1 -23623758#0 -746768889#1 23628327#1 244354939 E7 E8 48614463#0 48614463#1 23623767#1 23623767#2 23623767#3 23623767#4 23623767#5 153580096#0 153580096#1 160456256#0 59825150#0 59825150#1 59825150#2 59825150#3 59825150#4"/>
    </vehicle>
    <vehicle id="115" type="krauss_0.75" depart="230.00">
        <route edges="-23623758#1 -23623758#0 -746768889#1 23628327#1 244354939 E7 E8 48614463#0 48614463#1 23623767#1 23623767#2 23623767#3 23623767#4 23623767#5 153580096#0 153580096#1 160456256#0 59825150#0 59825150#1 59825150#2 59825160#0 -59825155#2 -59825155#1"/>
    </vehicle>
    <vehicle id="116" type="cacc" depart="232.00">
        <route edges="23628327#0 23628327#1 244354939 E7 E8 48614463#0 48614463#1"/>
    </vehicle>
    <vehicle id="117" type="krauss_0.5" depart="234.00">
        <route edges="-59825160#0 -59825150#2 -59825150#1 -59825150#0"/>
    </vehicle>
    <vehicle id="118" type="krauss_0.75" depart="236.00">
        <route edges="746768889#1 23623758#0 23623758#1 -23623758#1 -23623758#0 -746768889#1 23628327#1 244354939 E7 E8 48614463#0 48614463#1 23623767#1 23623767#2 23623767#3 23623767#4 23623767#5 153580096#0 153580096#1 160456256#0 160456256#1 -1071574865 59825169#1 -59825169#1"/>
    </vehicle>
    <vehicle id="119" type="cacc" depart="238.00">
        <route edges="23628327#0 -746768889#0 244354940"/>
    </vehicle>
    <vehicle id="121" type="krauss_0.75" depart="242.00">
        <route edges="23623758#1 -23623758#1 -23623758#0 -746768889#1 23628327#1 244354939 E7 -E5 90400257"/>
    </vehicle>
    <vehicle id="122" type="cacc" depart="244.00">
        <route edges="-59825155#1 -59825150#4 -59825150#3 -59825150#2 -59825150#1 -59825150#0 59825150#0 59825150#1"/>
    </vehicle>
    <vehicle id="123" type="krauss_0.5" depart="246.00">
        <route edges="-59825160#1 -59825160#0 -59825150#2 -59825150#1 -59825150#0 -160456256#0 458845292 448911877#0 448911877#1 23623767#7 23623767#8 23623767#0 23623767#1 23623767#2 23623767#3 23623767#4 23623767#5 153580096#0"/>
    </vehicle>
    <vehicle id="124" type="krauss_0.75" depart="248.00">
        <route edges="448911877#1 23623767#7 23623767#8 23623767#0 23623767#1 23623767#2 23623767#3 23623767#4 23623767#5 153580096#0 153580096#1 160456256#0 160456256#1 -1071574865 59825169#1 -1070604871 -59825187#1 -E4 -E2"/>
    </vehicle>
    <vehicle id="125" type="cacc" depart="250.00">
        <route edges="-746768889#1 23628327#1 244354939 E7 E8 48614463#0 48614463#1 23623767#1 23623767#2 23623767#3 23623767#4 23623767#5 153580096#0 153580096#1 160456256#0 59825150#0 59825150#1 59825150#2 59825150#3 59825150#4 -59825155#0 59825155#0"/>
    </vehicle>
    <vehicle id="126" type="krauss_0.5" depart="252.00">
        <route edges="-23623758#0 -746768889#1 23628327#1 244354939 E7 E8 48614463#0 48614463#1 23623767#1 23623767#2 23623767#3 23623767#4 23623767#5 23623767#6 23623767#7 160456271#0 160456271#1"/>
    </vehicle>
    <vehicle id="127" type="krauss_0.75" depart="254.00">
        <route edges="E8"/>
    </vehicle>
    <vehicle id="128" type="cacc" depart="256.00">
        <route edges="-23623758#0 -746768889#1 23628327#1 244354939 E7 E8 48614463#0 48614463#1 23623767#1 23623767#2 23623767#3 23623767#4 23623767#5 153580096#0 153580096#1 160456256#0 59825150#0 59825150#1 59825150#2 59825160#0 -59825160#0"/>
    </vehicle>
    <vehicle id="130" type="krauss_0.75" depart="260.00">
        <route edges="746768889#0 23628327#1 244354939 90400228 746768887"/>
    </vehicle>
    <vehicle id="131" type="cacc" depart="262.00">
        <route edges="-E5 90400257 244354941 746768889#0 23628327#1 244354939 E7 E8 48614463#0 48614463#1 23623767#1 23623767#2 23623767#3 23623767#4 23623767#5 153580096#0 153580096#1 160456256#0 59825150#0 59825150#1 59825150#2 59825150#3 59825150#4 -59825150#4 -59825150#3"/>
    </vehicle>
    <vehicle id="132" type="krauss_0.5" depart="264.00">
        <route edges="59825169#1 -59825169#1 1071574865 -160456256#1 59825150#0"/>
    </vehicle>
    <vehicle id="133" type="krauss_0.75" depart="266.00">
        <route edges="244354939 E7"/>
    </vehicle>
    <vehicle id="134" type="cacc" depart="268.00">
        <route edges="448911877#0 448911877#1 23623767#7 23623767#8 23623767#0 23623767#1 23623767#2 23623767#3 23623767#4 23623767#5 153580096#0 153580096#1 160456256#0 160456256#1 -1071574865 59825169#1 -1070604871"/>
    </vehicle>
    <vehicle id="135" type="krauss_0.5" depart="270.00">
        <route edges="59825160#1 -59825160#1 -59825160#0 -59825150#2 59825169#0 59825169#1 -1070604871 -59825187#1 -E4 -E2"/>
    </vehicle>
    <vehicle id="136" type="krauss_0.75" depart="272.00">
        <route edges="448911877#1 23623767#7 23623767#8 23623767#0 23623767#1 23623767#2 23623767#3 23623767#4 23623767#5 153580096#0 153580096#1 160456256#0 160456256#1 -1071574865 59825169#1 -1070604871 -59825187#1 -E4 E3 E1"/>
    </vehicle>
    <vehicle id="138" type="krauss_0.5" depart="276.00">
        <route edges="-23623765#2 -23623765#1 -23623765#0 23623765#0 23623765#1 23623765#2 23623765#3"/>
    </vehicle>
    <vehicle id="140" type="cacc" depart="280.00">
        <route edges="59825150#0 59825150#1 59825150#2 59825160#0 -59825155#2"/>
    </vehicle>
    <vehicle id="141" type="krauss_0.5" depart="282.00">
        <route edges="244354941 746768889#0 23628327#1 244354939 E7 E8 48614463#0 48614463#1 23623767#1 23623767#2 23623767#3 23623767#4 23623767#5 153580096#0 153580096#1 160456256#0 160456256#1 -1071574865 59825169#1 -1070604871 -59825187#1"/>
    </vehicle>
    <vehicle id="145" type="krauss_0.75" depart="290.00">
        <route edges="-1070604871 1070604871 -59825169#1 -59825169#0 59825150#2 59825150#3 59825150#4 59825155#1"/>
    </vehicle>
    <vehicle id="146" type="cacc" depart="292.00">
        <route edges="244354941 746768889#0 23628327#1 244354939 E7 E8 48614463#0 48614463#1 23623767#1 23623767#2 23623767#3 23623767#4 23623767#5 153580096#0 153580096#1 160456256#0 160456256#1 -1071574865 59825169#1 -1070604871 -59825187#1"/>
    </vehicle>
    <vehicle id="148" type="krauss_0.75" depart="296.00">
        <route edges="153580096#0 153580096#1 160456256#0 160456256#1 -1071574865 59825169#1 -1070604871"/>
    </vehicle>
    <vehicle id="149" type="cacc" depart="298.00">
        <route edges="-23623758#0 -746768889#1 -746768889#0 746768889#0"/>
    </vehicle>
    <vehicle id="150" type="krauss_0.5" depart="300.00">
        <route edges="90400228 E6 -E5 90400257 244354941 746768889#0 746768889#1 23623758#0 23623758#1 23623765#3"/>
    </vehicle>
    <vehicle id="152" type="cacc" depart="304.00">
        <route edges="-59825150#1 -59825150#0"/>
    </vehicle>
    <vehicle id="153" type="krauss_0.5" depart="306.00">
        <route edges="-746768889#0 746768889#0 746768889#1"/>
    </vehicle>
    <vehicle id="154" type="krauss_0.75" depart="308.00">
        <route edges="59825155#2 -59825160#0 -59825150#2 59825169#0 59825169#1 -1070604871 59825187#2"/>
    </vehicle>
    <vehicle id="155" type="cacc" depart="310.00">
        <route edges="90400228 E6 E8 48614463#0 48614463#1 23623767#1 23623767#2 23623767#3 23623767#4 23623767#5 153580096#0 153580096#1 160456256#0 59825150#0 59825150#1 59825150#2 59825160#0 -59825160#0"/>
    </vehicle>
    <vehicle id="162" type="krauss_0.5" depart="324.00">
        <route edges="-1188279664 160456272#0 160456272#1 23623767#5 153580096#0 153580096#1 160456256#0 59825150#0 59825150#1 59825150#2 59825150#3"/>
    </vehicle>
    <vehicle id="164" type="cacc" depart="328.00">
        <route edges="59825160#0 -59825160#0 -59825150#2 59825169#0 59825169#1 -1070604871 59825187#2"/>
    </vehicle>
    <vehicle id="165" type="krauss_0.5" depart="330.00">
        <route edges="59825160#1 -59825160#1 -59825160#0 -59825150#2 59825169#0 59825169#1 -1070604871 -59825187#1"/>
    </vehicle>
    <vehicle id="168" type="krauss_0.5" depart="336.00">
        <route edges="-59825155#2 -59825155#1 -59825150#4 -59825150#3 -59825150#2 59825169#0 59825169#1"/>
    </vehicle>
    <vehicle id="170" type="cacc" depart="340.00">
        <route edges="59825155#2 59825160#1 -59825160#1"/>
    </vehicle>
    <vehicle id="171" type="krauss_0.5" depart="342.00">
        <route edges="-1188279664 160456272#0 160456272#1 23623767#5 153580096#0 153580096#1 160456256#0 59825150#0 59825150#1 59825150#2 59825160#0 -59825155#2 -59825155#1"/>
    </vehicle>
    <vehicle id="172" type="krauss_0.75" depart="344.00">
        <route edges="-E1 -E3 E4 59825187#1 59825187#2"/>
    </vehicle>
    <vehicle id="173" type="cacc" depart="346.00">
        <route edges="E6 -E5 90400257 244354941 746768889#0 -746768889#0"/>
    </vehicle>
    <vehicle id="174" type="krauss_0.5" depart="348.00">
        <route edges="244354946 23628327#0 23628327#1 244354939 E7 E8 48614463#0 48614463#1 23623767#1 23623767#2 23623767#3 23623767#4 23623767#5 153580096#0"/>
    </vehicle>
    <vehicle id="175" type="krauss_0.75" depart="350.00">
        <route edges="E7 -E5 90400257 244354941 746768889#0 746768889#1 23623758#0 23623758#1 -23623765#2 -23623765#1 -23623765#0 23623765#0 23623765#1 23623765#2"/>
    </vehicle>
    <vehicle id="177" type="krauss_0.5" depart="354.00">
        <route edges="E6 E8 48614463#0 48614463#1 23623767#1 23623767#2 23623767#3 23623767#4 23623767#5 153580096#0 153580096#1 160456256#0 59825150#0 59825150#1 59825150#2 59825150#3 59825150#4 -59825155#0"/>
    </vehicle>
    <vehicle id="178" type="krauss_0.75" depart="356.00">
        <route edges="E5 E8 48614463#0 48614463#1 23623767#1 23623767#2 23623767#3 23623767#4 23623767#5 153580096#0 153580096#1 160456256#0 160456256#1 -1071574865 59825169#1 -1070604871 -59825187#1"/>
    </vehicle>
    <vehicle id="179" type="cacc" depart="358.00">
        <route edges="-23623765#2 -23623765#1 -23623765#0 23623765#0 23623765#1 23623765#2 -23623758#1 -23623758#0 -746768889#1 23628327#1 244354939 E7 E8 48614463#0 48614463#1 23623767#1 23623767#2 23623767#3 23623767#4 23623767#5 153580096#0 153580096#1 160456256#0 160456256#1"/>
    </vehicle>
    <vehicle id="181" type="krauss_0.75" depart="362.00">
        <route edges="23628327#1 244354939 E7 -E5 90400257 244354941 746768889#0 746768889#1 23623758#0 23623758#1"/>
    </vehicle>
    <vehicle id="182" type="cacc" depart="364.00">
        <route edges="-E7 90400228 E6 -E5 90400257 244354941 244354940 -244354946 244354946 23628327#0"/>
    </vehicle>
    <vehicle id="183" type="krauss_0.5" depart="366.00">
        <route edges="-59825169#0 -59825150#1 -59825150#0 59825150#0 59825150#1"/>
    </vehicle>
    <vehicle id="185" type="cacc" depart="370.00">
        <route edges="23623765#0 23623765#1 23623765#2 -23623758#1 -23623758#0 -746768889#1 23628327#1 244354939 E7 E8 48614463#0 48614463#1 23623767#1 23623767#2 23623767#3 23623767#4 23623767#5 153580096#0 153580096#1 160456256#0 59825150#0 59825150#1 59825150#2"/>
    </vehicle>
    <vehicle id="187" type="krauss_0.75" depart="374.00">
        <route edges="-E5 90400257 244354941 746768889#0 746768889#1 23623758#0 23623758#1 -23623758#1"/>
    </vehicle>
    <vehicle id="190" type="krauss_0.75" depart="380.00">
        <route edges="59825150#1 59825169#0 59825169#1 -1070604871 -59825187#1 -E4 -E2"/>
    </vehicle>
    <vehicle id="191" type="cacc" depart="382.00">
        <route edges="-746768889#0 746768889#0 23628327#1 244354939 E7 E8 48614463#0 48614463#1 23623767#1 23623767#2 23623767#3 23623767#4 23623767#5 153580096#0 153580096#1"/>
    </vehicle>
    <vehicle id="192" type="krauss_0.5" depart="384.00">
        <route edges="-E8 -E7 90400228 E6 E8 48614463#0 48614463#1 23623767#1 23623767#2 23623767#3 23623767#4 23623767#5 153580096#0 153580096#1 160456256#0 160456256#1 -1071574865 59825169#1 -1070604871 -59825187#1 -E4 -E2"/>
    </vehicle>
    <vehicle id="193" type="krauss_0.75" depart="386.00">
        <route edges="-59825146 -160456256#0 160456256#0"/>
    </vehicle>
    <vehicle id="195" type="krauss_0.5" depart="390.00">
        <route edges="90400228 E6 -E5 90400257 244354941 244354940"/>
    </vehicle>
    <vehicle id="199" type="krauss_0.75" depart="398.00">
        <route edges="448911877#0 448911877#1 23623767#7 160456271#0 160456271#1"/>