<?xml version='1.0' encoding='utf-8'?>
<routes xmlns:xsi="http://www.w3.org/2001/XMLSchema-instance" xsi:noNamespaceSchemaLocation="http://sumo.dlr.de/xsd/routes_file.xsd">
    <vehicle id="0" type="krauss" depart="0.00">
        <route edges="458845292 448911877#0 448911877#1 23623767#7 23623767#8 23623767#0 23623767#1 23623767#2 23623767#3 23623767#4 23623767#5 153580096#0 153580096#1 160456256#0 -160456256#0" />
    </vehicle>
    <vehicle id="1" type="krauss" depart="1.50">
        <route edges="-E10 E11 E12 -59825187#2 -59825187#1" />
    </vehicle>
    <vehicle id="2" type="krauss" depart="3.00">
        <route edges="59825160#0 -59825160#0 -59825150#2 -59825150#1 -59825150#0 59825150#0" />
    </vehicle>
    <vehicle id="3" type="krauss" depart="4.50">
        <route edges="E14 -59825169#2 59825169#2 -E14 244354946 23628327#0 746768889#1 23623758#0 23623758#1 -23623765#2" />
    </vehicle>
    <vehicle id="4" type="krauss" depart="6.00">
        <route edges="1070604871 -59825169#1 1071574865 -160456256#1 -160456256#0" />
    </vehicle>
    <vehicle id="5" type="krauss" depart="7.50">
        <route edges="-59825169#2 59825169#2 -E14 244354946 23628327#0 23628327#1 244354939 180755978#0" />
    </vehicle>
    <vehicle id="6" type="krauss" depart="9.00">
        <route edges="-160456256#0 160456256#0 160456256#1 -1071574865 59825169#1 -59825169#1" />
    </vehicle>
    <vehicle id="7" type="krauss" depart="10.50">
        <route edges="48614463#0 48614463#1 23623767#1 23623767#2 23623767#3 23623767#4 23623767#5 153580096#0 153580096#1 160456256#0 160456256#1 -1071574865 59825169#1 -1070604871 59825187#2 -E12 23623765#0 23623765#1 23623765#2" />
    </vehicle>
    <vehicle id="8" type="krauss" depart="12.00">
        <route edges="-59825169#2 59825169#2 -E14 244354946 23628327#0 23628327#1" />
    </vehicle>
    <vehicle id="9" type="krauss" depart="13.50">
        <route edges="746768889#0 -746768889#0 244354940 -244354946 E14 -59825169#2 -1070604871" />
    </vehicle>
    <vehicle id="10" type="krauss" depart="15.00">
        <route edges="746768887 746768895 -E15 -23623765#3 -23623758#1 -23623758#0 -746768889#1 -746768889#0 244354940 -244354946 E14 -59825169#2 -59825169#1 -59825169#0 59825150#2 59825150#3" />
    </vehicle>
    <vehicle id="11" type="krauss" depart="16.50">
        <route edges="-E18 -1188279664 160456272#0 160456272#1 23623767#5 153580096#0 153580096#1 160456256#0 59825150#0 59825150#1 59825150#2 59825150#3 59825150#4 -59825155#0" />
    </vehicle>
    <vehicle id="12" type="krauss" depart="18.00">
        <route edges="E4 59825187#1 -59825187#1 -E4 E3 E1 -E19" />
    </vehicle>
    <vehicle id="13" type="krauss" depart="19.50">
        <route edges="-23623765#3" />
    </vehicle>
    <vehicle id="14" type="krauss" depart="21.00">
        <route edges="90400257 244354941 244354940" />
    </vehicle>
    <vehicle id="15" type="krauss" depart="22.50">
        <route edges="746768889#0 -746768889#0 244354940 -244354946 E14 -59825169#2 -59825169#1 -59825169#0 59825150#2 59825150#3 59825150#4 59825155#1 59825155#2" />
    </vehicle>
    <vehicle id="16" type="krauss" depart="24.00">
        <route edges="23623765#1 23623765#2 -23623758#1 -23623758#0 -746768889#1 23628327#1 244354939 90400228 E6" />
    </vehicle>
    <vehicle id="17" type="krauss" depart="25.50">
        <route edges="-E5 90400257 244354941 746768889#0 746768889#1 23623758#0 23623758#1 23623765#3" />
    </vehicle>
    <vehicle id="18" type="krauss" depart="27.00">
        <route edges="746768895 -E15 -23623765#3 -23623758#1 -23623758#0 -746768889#1 -746768889#0 244354940 -244354946 244354946" />
    </vehicle>
    <vehicle id="19" type="krauss" depart="28.50">
        <route edges="E10 E2 E4 59825187#1 59825187#2 E13 244354946 23628327#0" />
    </vehicle>
    <vehicle id="20" type="krauss" depart="30.00">
        <route edges="59825150#4 -59825150#4 -59825150#3 -59825150#2 59825169#0 59825169#1 -1070604871 -59825187#1 -E4 -160456256#2" />
    </vehicle>
    <vehicle id="21" type="krauss" depart="31.50">
        <route edges="-59825187#1 -E4 -160456256#2 -1071574865 59825169#1 59825169#2 -E14 -E13" />
    </vehicle>
    <vehicle id="22" type="krauss" depart="33.00">
        <route edges="-23623765#1 -23623765#0 E12 -59825187#2" />
    </vehicle>
    <vehicle id="23" type="krauss" depart="34.50">
        <route edges="-244354946 -E13 -E12 -E11" />
    </vehicle>
    <vehicle id="24" type="krauss" depart="36.00">
        <route edges="448911877#1 23623767#7 23623767#8 23623767#0 23623767#1 23623767#2 23623767#3 23623767#4 23623767#5 153580096#0 153580096#1 160456256#0 160456256#1 -1071574865 59825169#1 -1070604871 -59825187#1 -E4" />
    </vehicle>
    <vehicle id="25" type="krauss" depart="37.50">
        <route edges="-E4 -160456256#2 -1071574865 59825169#1 59825169#2 -59825169#2" />
    </vehicle>
    <vehicle id="26" type="krauss" depart="39.00">
        <route edges="-E1 -E3 -160456256#2 -160456256#1 -160456256#0 458845292 448911877#0 448911877#1 23623767#7 23623767#8 23623767#0 23623767#1 23623767#2 23623767#3 23623768#0 23623768#1 1188279664 E18 E19" />
    </vehicle>
    <vehicle id="27" type="krauss" depart="40.50">
        <route edges="48614463#0 48614463#1 23623767#1 23623767#2 23623767#3 23623767#4 23623767#5 153580096#0 153580096#1 160456256#0 160456256#1 -1071574865 59825169#1 59825169#2 -E14 244354946 23628327#0 23628327#1 244354939 E7 -E5 90400257 244354941" />
    </vehicle>
    <vehicle id="28" type="krauss" depart="42.00">
        <route edges="-59825155#1 59825155#1" />
    </vehicle>
    <vehicle id="29" type="krauss" depart="43.50">
        <route edges="-59825155#0 59825155#0 -59825150#4 -59825150#3 -59825150#2 59825169#0 59825169#1 59825169#2 -E14 244354946 23628327#0 23628327#1 244354939 E7 -E6" />
    </vehicle>
    <vehicle id="30" type="krauss" depart="45.00">
        <route edges="E8 48614463#0 48614463#1 23623767#1 23623767#2 23623767#3 23623767#4 23623767#5 153580096#0 153580096#1 458845292" />
    </vehicle>
    <vehicle id="31" type="krauss" depart="46.50">
        <route edges="23623768#0 23623768#1 1188279664 -1188279664 160456272#0 160456272#1 23623767#5 153580096#0 153580096#1 160456256#0 59825150#0 59825150#1" />
    </vehicle>
    <vehicle id="32" type="krauss" depart="48.00">
        <route edges="90400257 244354941 244354940 -244354946 E14 -59825169#2 59825169#2" />
    </vehicle>
    <vehicle id="33" type="krauss" depart="49.50">
        <route edges="-59825187#1 -E4 -160456256#2 -160456256#1 -160456256#0" />
    </vehicle>
    <vehicle id="34" type="krauss" depart="51.00">
        <route edges="-E15 -23623765#3 -23623758#1 -23623758#0 -746768889#1 -746768889#0 244354940 -244354946 -E13 -59825187#2 -59825187#1 -E4 -E2 -E10" />
    </vehicle>
    <vehicle id="35" type="krauss" depart="52.50">
        <route edges="-59825169#1 59825169#1 -1070604871 59825187#2 -E12 -E11 E10 E2" />
    </vehicle>
    <vehicle id="36" type="krauss" depart="54.00">
        <route edges="E12 -59825187#2 -59825187#1 -E4 -E2 -E10 -E9 -E17 -E16" />
    </vehicle>
    <vehicle id="37" type="krauss" depart="55.50">
        <route edges="48614463#0 48614463#1 23623767#1 23623767#2 23623767#3 23623767#4 23623767#5 153580096#0 153580096#1 160456256#0 160456256#1 -1071574865 59825169#1 -1070604871 -59825187#1 -E4 -E2 -E10 -E9" />
    </vehicle>
    <vehicle id="38" type="krauss" depart="57.00">
        <route edges="E17 E9 E10 E2 -160456256#2 -160456256#1 160456256#1" />
    </vehicle>
    <vehicle id="39" type="krauss" depart="58.50">
        <route edges="-E1 -E3 E4 59825187#1 59825187#2 E13 244354946 23628327#0 746768889#1 23623758#0 23623758#1 -23623758#1 -23623758#0 -746768889#1" />
    </vehicle>
    <vehicle id="40" type="krauss" depart="60.00">
        <route edges="23623768#0 23623768#1 1188279664 E18 E19 -E1 -E3 -E2 -E10" />
    </vehicle>
    <vehicle id="41" type="krauss" depart="61.50">
        <route edges="23628327#1 244354939 E7 -E5 90400257 244354941 244354940 -244354946 E14" />
    </vehicle>
    <vehicle id="42" type="krauss" depart="63.00">
        <route edges="-E7 90400228 E6 -E5 90400257 244354941 244354940 -244354946 -E13 -E12 -E11 -E9 -59825183" />
    </vehicle>
    <vehicle id="43" type="krauss" depart="64.50">
        <route edges="E9 E11 E12 E13 244354946 23628327#0 746768889#1 23623758#0" />
    </vehicle>
    <vehicle id="44" type="krauss" depart="66.00">
        <route edges="-23623765#2 -23623765#1 -23623765#0 E12 -59825187#2 -59825187#1 -E4 -160456256#2" />
    </vehicle>
    <vehicle id="45" type="krauss" depart="67.50">
        <route edges="-59825146 -160456256#0 458845292 448911877#0" />
    </vehicle>
    <vehicle id="46" type="krauss" depart="69.00">
        <route edges="59825187#2 E13 244354946 23628327#0 23628327#1 244354939 E7 E8 48614463#0 48614463#1 23623767#1 23623767#2 23623767#3 23623768#0 23623768#1 1188279664" />
    </vehicle>
    <vehicle id="47" type="krauss" depart="70.50">
        <route edges="-23623758#1 -23623758#0 -746768889#1 23628327#1 244354939 E7 -E6" />
    </vehicle>
    <vehicle id="48" type="krauss" depart="72.00">
        <route edges="E9 E11 23623765#0" />
    </vehicle>
    <vehicle id="49" type="krauss" depart="73.50">
        <route edges="E6 -E5 90400257 244354941 244354940 -244354946 -E13 -E12 -E11 E10" />
    </vehicle>
    <vehicle id="50" type="krauss" depart="75.00">
        <route edges="-1071574865 -59825169#0 59825150#2 59825150#3 59825150#4 -59825155#0 59825155#0" />
    </vehicle>
    <vehicle id="51" type="krauss" depart="76.50">
        <route edges="59825150#2 -59825150#2 59825169#0 59825169#1 -1070604871 59825187#2 -E12 23623765#0 23623765#1" />
    </vehicle>
    <vehicle id="52" type="krauss" depart="78.00">
        <route edges="-E1 -E3 -160456256#2 -160456256#1 -160456256#0 458845292" />
    </vehicle>
    <vehicle id="53" type="krauss" depart="79.50">
        <route edges="-59825146 -160456256#0 458845292 448911877#0 448911877#1 23623767#7 23623767#8 23623767#0 23623767#1 23623767#2 23623767#3 23623767#4 23623767#5 153580096#0 153580096#1" />
    </vehicle>
    <vehicle id="54" type="krauss" depart="81.00">
        <route edges="153580096#0 153580096#1 160456256#0 160456256#1 -1071574865 59825169#1 -1070604871 -59825187#1 -E4 E3" />
    </vehicle>
    <vehicle id="55" type="krauss" depart="82.50">
        <route edges="E12 -59825187#2 -59825187#1 -E4 -E2 -E10" />
    </vehicle>
    <vehicle id="56" type="krauss" depart="84.00">
        <route edges="160456272#1 23623767#5 153580096#0 153580096#1 160456256#0 59825150#0 59825150#1 59825150#2 59825160#0 -59825160#0" />
    </vehicle>
    <vehicle id="57" type="krauss" depart="85.50">
        <route edges="E17 E9 E11" />
    </vehicle>
    <vehicle id="58" type="krauss" depart="87.00">
        <route edges="-E13 -59825187#2 1070604871 -59825169#1 1071574865 -160456256#1 -160456256#0 458845292 448911877#0 448911877#1" />
    </vehicle>
    <vehicle id="59" type="krauss" depart="88.50">
        <route edges="244354941 244354940 -244354946 E14 -59825169#2 -59825169#1 -59825169#0 59825150#2 59825150#3 59825150#4 -59825155#0" />
    </vehicle>
    <vehicle id="60" type="krauss" depart="90.00">
        <route edges="59825169#1 -1070604871 59825187#2 -E12 23623765#0 23623765#1" />
    </vehicle>
    <vehicle id="61" type="krauss" depart="91.50">
        <route edges="59825183 E9 E11 23623765#0" />
    </vehicle>
    <vehicle id="62" type="krauss" depart="93.00">
        <route edges="-1070604871 -59825187#1 -E4 -E2 -E10 -E9 -E17" />
    </vehicle>
    <vehicle id="63" type="krauss" depart="94.50">
        <route edges="-1188279664 160456272#0 160456272#1 23623767#5 23623767#6 23623767#7 23623767#8 23623767#0 23623767#1 23623767#2 23623767#3 23623768#0 23623768#1 1188279664 E18" />
    </vehicle>
    <vehicle id="64" type="krauss" depart="96.00">
        <route edges="E12 E13 244354946 23628327#0 23628327#1 244354939 90400228 746768887 746768895" />
    </vehicle>
    <vehicle id="65" type="krauss" depart="97.50">
        <route edges="-E14 244354946 23628327#0 746768889#1 23623758#0 23623758#1 -23623758#1" />
    </vehicle>
    <vehicle id="66" type="krauss" depart="99.00">
        <route edges="E12 -59825187#2 -59825187#1 -E4 E3 59825183 E9 E10 E2" />
    </vehicle>
    <vehicle id="67" type="krauss" depart="100.50">
        <route edges="-23623765#2 -23623765#1 -23623765#0 -E11 -E9 -E17 -E16 -E19 -E18 -1188279664 160456272#0" />
    </vehicle>
    <vehicle id="68" type="krauss" depart="102.00">
        <route edges="-23623765#0 E12 -59825187#2 1070604871 -59825169#1 -59825169#0 59825169#0" />
    </vehicle>
    <vehicle id="69" type="krauss" depart="103.50">
        <route edges="59825169#2 -59825169#2 -59825169#1 -59825169#0 59825150#2 -59825150#2" />
    </vehicle>
    <vehicle id="70" type="krauss" depart="105.00">
        <route edges="160456256#1 -1071574865 59825169#1 59825169#2 -E14 244354946 23628327#0 746768889#1 23623758#0 23623758#1 23623765#3" />
    </vehicle>
    <vehicle id="71" type="krauss" depart="106.50">
        <route edges="-E1 59825183 E9 E11" />
    </vehicle>
    <vehicle id="72" type="krauss" depart="108.00">
        <route edges="1070604871 59825169#2 -59825169#2" />
    </vehicle>
    <vehicle id="73" type="krauss" depart="109.50">
        <route edges="23623765#2 -23623758#1 -23623758#0 -746768889#1 -746768889#0 244354940 -244354946 E14 -59825169#2 -59825169#1 -59825169#0 59825150#2 59825150#3 59825150#4 59825155#1 59825155#2" />
    </vehicle>
    <vehicle id="74" type="krauss" depart="111.00">
        <route edges="-59825160#1 -59825160#0 -59825150#2 59825169#0 59825169#1 -1070604871 -59825187#1 -E4 -E2 -E10 -E9 -E17 -E16" />
    </vehicle>
    <vehicle id="75" type="krauss" depart="112.50">
        <route edges="E9 E11 E12 E13 244354946 23628327#0 23628327#1 244354939 E7 E8 48614463#0" />
    </vehicle>
    <vehicle id="76" type="krauss" depart="114.00">
        <route edges="1188279664 -1188279664 160456272#0 160456272#1 23623767#5 153580096#0 153580096#1 160456256#0 160456256#1 -1071574865 59825169#1 59825169#2 -E14 244354946 23628327#0 746768889#1 23623758#0 23623758#1" />
    </vehicle>
    <vehicle id="77" type="krauss" depart="115.50">
        <route edges="458845292 448911877#0 448911877#1 23623767#7 23623767#8 23623767#0 23623767#1 23623767#2 23623767#3 23623768#0 23623768#1 1188279664 E18 E19 E16 E17" />
    </vehicle>
    <vehicle id="78" type="krauss" depart="117.00">
        <route edges="-E18 -1188279664 160456272#0 160456272#1 23623767#5 153580096#0 153580096#1 160456256#0 160456256#1 -1071574865 59825169#1 59825169#2 -E14 244354946 23628327#0 23628327#1" />
    </vehicle>
    <vehicle id="79" type="krauss" depart="118.50">
        <route edges="-59825187#1 -E4 -E2 -E10 -E9 -59825183" />
    </vehicle>
    <vehicle id="80" type="krauss" depart="120.00">
        <route edges="-23623765#0 E12 -59825187#2 1070604871 -59825169#1 1071574865 -160456256#1 -160456256#0 458845292 448911877#0" />
    </vehicle>
    <vehicle id="81" type="krauss" depart="121.50">
        <route edges="-59825187#1 -E4 -160456256#2 -1071574865 59825169#1 59825169#2 -E14 244354946 23628327#0 746768889#1 23623758#0 23623758#1 23623765#3 E15" />
    </vehicle>
    <vehicle id="82" type="krauss" depart="123.00">
        <route edges="E10 E2 E4 59825187#1 59825187#2 E13 244354946 23628327#0 746768889#1 23623758#0 23623758#1 -23623765#2 -23623765#1 -23623765#0" />
    </vehicle>
    <vehicle id="83" type="krauss" depart="124.50">
        <route edges="-59825187#2 1070604871 -59825169#1 1071574865 -160456256#1 59825146" />
    </vehicle>
    <vehicle id="84" type="krauss" depart="126.00">
        <route edges="-59825169#1 -59825169#0 59825150#2 59825150#3 59825150#4 -59825150#4 -59825150#3" />
    </vehicle>
    <vehicle id="85" type="krauss" depart="127.50">
        <route edges="E2 -160456256#2 -160456256#1 -160456256#0 458845292 448911877#0 448911877#1 23623767#7 23623767#8 23623767#0 23623767#1 23623767#2 23623767#3 23623768#0 23623768#1" />
    </vehicle>
    <vehicle id="86" type="krauss" depart="129.00">
        <route edges="160456256#1 -1071574865 59825169#1 -1070604871 -59825187#1 -E4 E3 59825183" />
    </vehicle>
    <vehicle id="87" type="krauss" depart="130.50">
        <route edges="746768889#0 -746768889#0 244354940 -244354946 E14 -59825169#2 -59825169#1 -59825169#0" />
    </vehicle>
    <vehicle id="88" type="krauss" depart="132.00">
        <route edges="-23623765#3 -23623758#1 -23623758#0 -746768889#1 23628327#1 244354939 E7 E8 48614463#0 48614463#1 23623767#1 23623767#2 23623767#3 23623767#4 23623767#5 153580096#0" />
    </vehicle>
    <vehicle id="89" type="krauss" depart="133.50">
        <route edges="1070604871 -59825169#1 1071574865 160456256#2" />
    </vehicle>
    <vehicle id="90" type="krauss" depart="135.00">
        <route edges="59825155#2 -59825160#0 -59825150#2 -59825150#1 -59825150#0 59825150#0" />
    </vehicle>
    <vehicle id="91" type="krauss" depart="136.50">
        <route edges="E8 48614463#0 48614463#1 23623767#1 23623767#2 23623767#3 23623767#4 23623767#5 153580096#0 153580096#1 160456256#0 160456256#1 -1071574865 59825169#1 59825169#2 -E14 244354946 23628327#0 -746768889#0 244354940 -244354946" />
    </vehicle>
    <vehicle id="92" type="krauss" depart="138.00">
        <route edges="-E7 90400228 E6 -E5 90400257 244354941 244354940 -244354946 -E13 -59825187#2 -59825187#1 -E4 E3 E1 -E19" />
    </vehicle>
    <vehicle id="93" type="krauss" depart="139.50">
        <route edges="E10 E2 E4 59825187#1 59825187#2 E13 244354946 23628327#0 746768889#1 23623758#0 23623758#1 -23623758#1 -23623758#0 -746768889#1" />
    </vehicle>
    <vehicle id="94" type="krauss" depart="141.00">
        <route edges="-59825160#0 -59825150#2 -59825150#1 -59825150#0 -160456256#0 160456256#0" />
    </vehicle>
    <vehicle id="95" type="krauss" depart="142.50">
        <route edges="1070604871 59825169#2 -E14 -E13 -E12 -E11" />
    </vehicle>
    <vehicle id="96" type="krauss" depart="144.00">
        <route edges="-746768889#0 244354940 -244354946 -E13 -59825187#2 -59825187#1 -E4 E3 E1 E16 E17" />
    </vehicle>
    <vehicle id="97" type="krauss" depart="145.50">
        <route edges="1188279664 E18 E19 E16 E17 E9 E10" />
    </vehicle>
    <vehicle id="98" type="krauss" depart="147.00">
        <route edges="23623765#3 -23623765#3 -23623758#1 -23623758#0" />
    </vehicle>
    <vehicle id="99" type="krauss" depart="148.50">
        <route edges="E9 E11 E12 E13 244354946 23628327#0 23628327#1 244354939 90400228 746768887 746768895" />
    </vehicle>
    <vehicle id="100" type="krauss" depart="150.00">
        <route edges="E6 E8 48614463#0 48614463#1 23623767#1 23623767#2 23623767#3 23623768#0 23623768#1 1188279664 E18" />
    </vehicle>
    <vehicle id="101" type="krauss" depart="151.50">
        <route edges="90400257 244354941 244354940 -244354946 E14 -59825169#2 -59825169#1 -59825169#0 59825150#2 59825160#0 -59825155#2" />
    </vehicle>
    <vehicle id="102" type="krauss" depart="153.00">
        <route edges="458845292 448911877#0 448911877#1 23623767#7 23623767#8 23623767#0 23623767#1 23623767#2 23623767#3 23623767#4 23623767#5 153580096#0 153580096#1 160456256#0 -160456256#0" />
    </vehicle>
    <vehicle id="103" type="krauss" depart="154.50">
        <route edges="-E7 90400228 E6 -E5 90400257 244354941 746768889#0 746768889#1 23623758#0 23623758#1 -23623758#1" />
    </vehicle>
    <vehicle id="104" type="krauss" depart="156.00">
        <route edges="-E5 90400257 244354941 746768889#0 23628327#1 244354939 E7 E8" />
    </vehicle>
    <vehicle id="105" type="krauss" depart="157.50">
        <route edges="-E1 59825183" />
    </vehicle>
    <vehicle id="106" type="krauss" depart="159.00">
        <route edges="153580096#1 458845292 448911877#0 448911877#1 23623767#7 23623767#8 23623767#0 23623767#1 23623767#2 23623767#3 23623768#0 23623768#1 1188279664" />
    </vehicle>
    <vehicle id="107" type="krauss" depart="160.50">
        <route edges="E4 59825187#1 -59825187#1 -E4 E3 59825183 E9" />
    </vehicle>
    <vehicle id="108" type="krauss" depart="162.00">
        <route edges="23623768#0 23623768#1 1188279664 -1188279664 160456272#0 160456272#1 23623767#5 153580096#0 153580096#1 160456256#0 59825150#0 59825150#1 59825150#2 59825150#3 59825150#4 -59825155#0 59825155#0" />
    </vehicle>
    <vehicle id="109" type="krauss" depart="163.50">
        <route edges="-59825150#4 -59825150#3 -59825150#2 59825169#0 59825169#1 59825169#2 -E14" />
    </vehicle>
    <vehicle id="110" type="krauss" depart="165.00">
        <route edges="E6 -E5 90400257 244354941 244354940 -244354946 244354946 23628327#0" />
    </vehicle>
    <vehicle id="111" type="krauss" depart="166.50">
        <route edges="23623765#2 -23623758#1 -23623758#0 -746768889#1 -746768889#0 244354940 -244354946 E14 -59825169#2 -59825169#1 -59825169#0 59825150#2 59825160#0 59825160#1" />
    </vehicle>
    <vehicle id="112" type="krauss" depart="168.00">
        <route edges="-23623758#0 -746768889#1 23628327#1" />
    </vehicle>
    <vehicle id="113" type="krauss" depart="169.50">
        <route edges="160456272#1 23623767#5 153580096#0 153580096#1 160456256#0 59825146 -E0 E1" />
    </vehicle>
    <vehicle id="114" type="krauss" depart="171.00">
        <route edges="-59825150#4 -59825150#3 -59825150#2 -59825150#1 -59825150#0 59825146 -E0 -E3 E4" />
    </vehicle>
    <vehicle id="115" type="krauss" depart="172.50">
        <route edges="-23623765#1 -23623765#0 E12 -59825187#2 1070604871 -59825169#1 -59825169#0 59825150#2 59825160#0 59825160#1 -59825160#1" />
    </vehicle>
    <vehicle id="116" type="krauss" depart="174.00">
        <route edges="244354939 E7 E8 48614463#0 48614463#1 23623767#1 23623767#2 23623767#3 23623767#4 23623767#5 153580096#0 153580096#1 160456256#0 59825150#0" />
    </vehicle>
    <vehicle id="117" type="krauss" depart="175.50">
        <route edges="-59825187#1 -E4 -160456256#2 -1071574865 -59825169#0 -59825150#1" />
    </vehicle>
    <vehicle id="118" type="krauss" depart="177.00">
        <route edges="E13 244354946 23628327#0 746768889#1 23623758#0 23623758#1 -23623758#1 -23623758#0 -746768889#1" />
    </vehicle>
    <vehicle id="119" type="krauss" depart="178.50">
        <route edges="244354939 E7 -E5 90400257 244354941 244354940 -244354946 244354946" />
    </vehicle>
    <vehicle id="120" type="krauss" depart="180.00">
        <route edges="-E9 -59825183 -E3 E4 59825187#1 59825187#2 E13 244354946 23628327#0 23628327#1" />
    </vehicle>
    <vehicle id="121" type="krauss" depart="181.50">
        <route edges="23623765#0 23623765#1 23623765#2 -23623758#1 -23623758#0 -746768889#1 23628327#1 244354939 E7 E8 48614463#0 48614463#1 23623767#1 23623767#2 23623767#3 23623768#0 23623768#1 1188279664 E18 E19" />
    </vehicle>
    <vehicle id="122" type="krauss" depart="183.00">
        <route edges="-59825169#0 59825150#2 59825150#3 59825150#4 -59825155#0 59825155#0" />
    </vehicle>
    <vehicle id="123" type="krauss" depart="184.50">
        <route edges="-59825187#2 -59825187#1 -E4 -E2 -E10 -E9" />
    </vehicle>
    <vehicle id="124" type="krauss" depart="186.00">
        <route edges="59825150#0 59825150#1 59825169#0 59825169#1 59825169#2 -E14" />
    </vehicle>
    <vehicle id="125" type="krauss" depart="187.50">
        <route edges="-E15 -23623765#3 -23623758#1 -23623758#0 -746768889#1 -746768889#0 244354940 -244354946 E14 -59825169#2 -59825169#1 -59825169#0 59825150#2 59825160#0 59825160#1" />
    </vehicle>
    <vehicle id="126" type="krauss" depart="189.00">
        <route edges="-23623765#0 E12 -59825187#2 1070604871 -59825169#1 1071574865 -160456256#1 160456256#1" />
    </vehicle>
    <vehicle id="127" type="krauss" depart="190.50">
        <route edges="E9" />
    </vehicle>
    <vehicle id="128" type="krauss" depart="192.00">
        <route edges="-23623765#0 -E11 -E9 -59825183" />
    </vehicle>
    <vehicle id="129" type="krauss" depart="193.50">
        <route edges="-E1 -E3 -160456256#2 -160456256#1 -160456256#0 458845292 448911877#0 448911877#1 23623767#7 23623767#8 23623767#0 23623767#1 23623767#2 23623767#3 23623768#0 23623768#1 1188279664 E18" />
    </vehicle>
    <vehicle id="130" type="krauss" depart="195.00">
        <route edges="E12" />
    </vehicle>
    <vehicle id="131" type="krauss" depart="196.50">
        <route edges="-E3 -160456256#2 -160456256#1 59825150#0 59825150#1 59825150#2 59825160#0 -59825155#2 -59825155#1" />
    </vehicle>
    <vehicle id="132" type="krauss" depart="198.00">
        <route edges="90400228 E6 E8 48614463#0 48614463#1 23623767#1 23623767#2 23623767#3 23623767#4 23623767#5 153580096#0 153580096#1 160456256#0 59825150#0 59825150#1 59825150#2 59825150#3" />
    </vehicle>
    <vehicle id="133" type="krauss" depart="199.50">
        <route edges="244354941 746768889#0 23628327#1 244354939 E7 E8" />
    </vehicle>
    <vehicle id="134" type="krauss" depart="201.00">
        <route edges="48614463#0 48614463#1 23623767#1 23623767#2 23623767#3 23623767#4 23623767#5 153580096#0 153580096#1 160456256#0 160456256#1 -1071574865 59825169#1 -1070604871" />
    </vehicle>
    <vehicle id="135" type="krauss" depart="202.50">
        <route edges="746768889#1 23623758#0 23623758#1 -23623758#1 -23623758#0 -746768889#1 -746768889#0 244354940 -244354946 E14 -59825169#2 59825169#2 -E14" />
    </vehicle>
    <vehicle id="136" type="krauss" depart="204.00">
        <route edges="48614463#1 23623767#1 23623767#2 23623767#3 23623768#0 23623768#1 1188279664 E18 E19" />
    </vehicle>
    <vehicle id="137" type="krauss" depart="205.50">
        <route edges="-59825150#1" />
    </vehicle>
    <vehicle id="138" type="krauss" depart="207.00">
        <route edges="-244354946 244354946 23628327#0 746768889#1 23623758#0 23623758#1 23623765#3" />
    </vehicle>
    <vehicle id="139" type="krauss" depart="208.50">
        <route edges="-E10 E11 E12 E13 244354946 23628327#0 -746768889#0 244354940" />
    </vehicle>
    <vehicle id="140" type="krauss" depart="210.00">
        <route edges="59825155#1 59825155#2 -59825160#0 -59825150#2 59825169#0 59825169#1 -59825169#1" />
    </vehicle>
    <vehicle id="141" type="krauss" depart="211.50">
        <route edges="448911877#1 23623767#7 23623767#8 23623767#0 23623767#1 23623767#2 23623767#3 23623767#4 23623767#5 153580096#0 153580096#1 160456256#0 160456256#1 -1071574865 59825169#1 -1070604871 -59825187#1 -E4 -E2 -E10" />
    </vehicle>
    <vehicle id="142" type="krauss" depart="213.00">
        <route edges="160456272#0 160456272#1 23623767#5 153580096#0 153580096#1 160456256#0 160456256#1 -1071574865 59825169#1 59825169#2 -E14 244354946 23628327#0 746768889#1 23623758#0 23623758#1 23623765#3 E15" />
    </vehicle>
    <vehicle id="143" type="krauss" depart="214.50">
        <route edges="90400257 244354941 746768889#0 23628327#1 244354939 90400228 746768887 746768895 -E15 -23623765#3" />
    </vehicle>
    <vehicle id="144" type="krauss" depart="216.00">
        <route edges="1070604871 59825169#2 -E14 -E13 -E12 -E11" />
    </vehicle>
    <vehicle id="145" type="krauss" depart="217.50">
        <route edges="-1070604871 1070604871 59825169#2" />
    </vehicle>
    <vehicle id="146" type="krauss" depart="219.00">
        <route edges="448911877#1 23623767#7 23623767#8 23623767#0 23623767#1 23623767#2 23623767#3 23623768#0 23623768#1 1188279664 E18 E19 -E1" />
    </vehicle>
    <vehicle id="147" type="krauss" depart="220.50">
        <route edges="59825160#1 -59825160#1 -59825160#0 -59825150#2 59825169#0 59825169#1 59825169#2 -E14 244354946 23628327#0 746768889#1 23623758#0 23623758#1 23623765#3" />
    </vehicle>
    <vehicle id="148" type="krauss" depart="222.00">
        <route edges="1070604871 -59825169#1 1071574865 -1071574865" />
    </vehicle>
    <vehicle id="149" type="krauss" depart="223.50">
        <route edges="-23623765#0 E12" />
    </vehicle>
    <vehicle id="150" type="krauss" depart="225.00">
        <route edges="E16 E17 E9 E11 23623765#0 23623765#1 23623765#2" />
    </vehicle>
    <vehicle id="151" type="krauss" depart="226.50">
        <route edges="90400228 E6 -E5 90400257 244354941 746768889#0 23628327#1" />
    </vehicle>
    <vehicle id="152" type="krauss" depart="228.00">
        <route edges="-59825150#3 -59825150#2" />
    </vehicle>
    <vehicle id="153" type="krauss" depart="229.50">
        <route edges="-E14 244354946 23628327#0 -746768889#0 244354940 -244354946 E14" />
    </vehicle>
    <vehicle id="154" type="krauss" depart="231.00">
        <route edges="59825187#2 -E12 -E11 E10" />
    </vehicle>
    <vehicle id="155" type="krauss" depart="232.50">
        <route edges="E14 -59825169#2" />
    </vehicle>
    <vehicle id="156" type="krauss" depart="234.00">
        <route edges="-746768889#0 244354940 -244354946" />
    </vehicle>
    <vehicle id="157" type="krauss" depart="235.50">
        <route edges="59825183 E9 E11 E12" />
    </vehicle>
    <vehicle id="158" type="krauss" depart="237.00">
        <route edges="-E8 -E5 90400257 244354941 244354940 -244354946 244354946" />
    </vehicle>
    <vehicle id="159" type="krauss" depart="238.50">
        <route edges="-59825150#4 -59825150#3 -59825150#2 -59825150#1 -59825150#0 -160456256#0 458845292 448911877#0 448911877#1 23623767#7 23623767#8 23623767#0 23623767#1 23623767#2 23623767#3 23623768#0 23623768#1 1188279664 E18" />
    </vehicle>
    <vehicle id="160" type="krauss" depart="240.00">
        <route edges="E10 E2 E4 59825187#1 59825187#2 E13 244354946 23628327#0 23628327#1 244354939 E7" />
    </vehicle>
    <vehicle id="161" type="krauss" depart="241.50">
        <route edges="746768889#0 746768889#1 23623758#0 23623758#1 -23623765#2 -23623765#1 -23623765#0 E12" />
    </vehicle>
    <vehicle id="162" type="krauss" depart="243.00">