<?xml version='1.0' encoding='utf-8'?>
<routes xmlns:xsi="http://www.w3.org/2001/XMLSchema-instance" xsi:noNamespaceSchemaLocation="http://sumo.dlr.de/xsd/routes_file.xsd">
    <vTypeDistribution id="VehicleList">
        <vType id="krauss" sigma="0.5" maxSpeed="35" vClass="passenger" length="4.5" guiShape="passenger" minGap="0" color="red">
            <param key="device.rerouting.probability" value="1.0" />
            <param key="device.rerouting.period" value="60" />
        </vType>
        <vType id="cacc" carFollowModel="CACC" maxSpeed="35" vClass="passenger" length="4.5" guiShape="passenger" minGap="0" color="green">
            <param key="device.rerouting.probability" value="1.0" />
            <param key="device.rerouting.period" value="60" />
        </vType>
    </vTypeDistribution> 
    <trip id="0" depart="0.00" from="6988229078" to="255898625" type="krauss" />
    <trip id="1" depart="1.00" from="2213511158" to="9825186958" type="krauss" />
    <trip id="1" depart="1.00" from="6988229091" to="742407468" type="krauss" />
    <trip id="1" depart="1.00" from="2213511158" to="9825186958" type="krauss" />
    <trip id="1" depart="1.00" from="2213511158" to="9825186958" type="krauss" />
    <trip id="1" depart="1.00" from="2213511158" to="9825186958" type="krauss" />
    <trip id="1" depart="1.00" from="2213511158" to="9825186958" type="krauss" />
    <trip id="1" depart="1.00" from="2213511158" to="9825186958" type="krauss" />
    <trip id="1" depart="1.00" from="2213511158" to="9825186958" type="krauss" />
    <trip id="1" depart="1.00" from="2213511158" to="9825186958" type="krauss" />
    <trip id="1" depart="1.00" from="2213511158" to="9825186958" type="krauss" />

</routes>