<?xml version="1.0" encoding="UTF-8"?>

<!-- generated on 2024-11-09 15:27:39.537837 by randomTrips.py v1_21_0+0546-c8b591674a3
<configuration>
    <net-file value="junction.net.xml"/>
    <output-trip-file value="junction.trips.xml"/>
    <trip-attributes value="type=&quot;krauss_0.5&quot;"/>
    <end value="2.0"/>
    <period value="1.0"/>
</configuration>
-->

<routes xmlns:xsi="http://www.w3.org/2001/XMLSchema-instance" xsi:noNamespaceSchemaLocation="http://sumo.dlr.de/xsd/routes_file.xsd">
    <vTypeDistribution id="VehicleList">
        <vType id ="krauss_0.5" sigma = "0.5" maxSpeed="35" vClass="passenger" length="4.5" guiShape="passenger" minGap="0" color="blue">
            <param key="device.rerouting.probability" value="1.0"/>
            <param key="device.rerouting.period" value="60"/>
        </vType>
        <vType id ="krauss_0.75" sigma = "0.25" maxSpeed="45" vClass="passenger" length="4.5" guiShape="passenger" minGap="0" color="red">
            <param key="device.rerouting.probability" value="1.0"/>
            <param key="device.rerouting.period" value="60"/>
        </vType>
        <vType id ="cacc" carFollowModel="CACC" maxSpeed="35" vClass="passenger" length="4.5" guiShape="passenger" minGap="0" color="green">
            <param key="device.rerouting.probability" value="1.0"/>
            <param key="device.rerouting.period" value="60"/>
        </vType>
    </vTypeDistribution>
    <trip id="0" depart="0.00" from="E14" to="-E1" type="krauss_0.5"/>
    <trip id="1" depart="1.00" from="-E35" to="-E32" type="krauss_0.5"/>
</routes>
