<?xml version="1.0" encoding="utf-8"?>

<configuration>
    <input>
        <net-file value="junction.net.xml"/>
        <route-files value="junction.rou.xml"/>
        <additional-files value="additional.vtype.xml">
    </input>
    <time>
        <begin value="0"/>
        <end value="1050"/>
        <step-length="0.1">
    </time>
    <collisions>
        <collision.stoptime = "3"/>
    </collisions>
</configuration>
