<?xml version="1.0" encoding="utf-8"?>

<configuration>
    <input>
        <net-file value="junction.net.xml"/>
        <route-files value="junction.random.rou.xml"/>
        <additional-files value="additional.add.vtype.xml"/>
    </input>
    <time>
        <begin value="0"/>
        <end value="3000"/>
        <step-length value="0.1"/>
    </time>
    <processing>
        <collision.action value="none"/>
        <collision.stoptime value="3"/>
    </processing>
</configuration>
