<?xml version="1.0" encoding="UTF-8"?>

<!-- generated on 2024-11-03 17:31:59 by Eclipse SUMO netedit Version v1_21_0+0546-c8b591674a3
<neteditConfiguration xmlns:xsi="http://www.w3.org/2001/XMLSchema-instance" xsi:noNamespaceSchemaLocation="http://sumo.dlr.de/xsd/neteditConfiguration.xsd">

    <input>
        <sumocfg-file value="/home/haron/artery/scenarios/junction/junction.sumocfg"/>
        <additional-files value="/home/haron/artery/scenarios/junction/junction.add.xml"/>
        <route-files value="/home/haron/artery/scenarios/junction/junction.rou.xml"/>
        <sumo-net-file value="/home/haron/artery/scenarios/junction/junction.net.xml"/>
    </input>

    <output>
        <output-file value="/home/haron/artery/scenarios/junction/junction.net.xml"/>
    </output>

    <processing>
        <offset.disable-normalization value="true"/>
    </processing>

    <junctions>
        <no-turnarounds value="true"/>
    </junctions>

    <netedit>
        <new-network value="false"/>
    </netedit>

</neteditConfiguration>
-->

<net version="1.20" junctionCornerDetail="5" limitTurnSpeed="5.50" xmlns:xsi="http://www.w3.org/2001/XMLSchema-instance" xsi:noNamespaceSchemaLocation="http://sumo.dlr.de/xsd/net_file.xsd">

    <location netOffset="0.00,0.00" convBoundary="-100.00,-100.00,300.00,0.00" origBoundary="10000000000.00,10000000000.00,-10000000000.00,-10000000000.00" projParameter="!"/>

    <edge id=":J1_0" function="internal">
        <lane id=":J1_0_0" index="0" speed="13.89" length="14.40" shape="7.20,1.60 -7.20,1.60"/>
    </edge>
    <edge id=":J1_1" function="internal">
        <lane id=":J1_1_0" index="0" speed="8.00" length="4.07" shape="7.20,1.60 3.35,1.05 3.20,0.96"/>
    </edge>
    <edge id=":J1_6" function="internal">
        <lane id=":J1_6_0" index="0" speed="8.00" length="10.13" shape="3.20,0.96 0.60,-0.60 -1.05,-3.35 -1.60,-7.20"/>
    </edge>
    <edge id=":J1_2" function="internal">
        <lane id=":J1_2_0" index="0" speed="6.51" length="9.03" shape="1.60,-7.20 1.95,-4.75 3.00,-3.00 4.75,-1.95 7.20,-1.60"/>
    </edge>
    <edge id=":J1_3" function="internal">
        <lane id=":J1_3_0" index="0" speed="8.00" length="14.19" shape="1.60,-7.20 1.05,-3.35 -0.60,-0.60 -3.35,1.05 -7.20,1.60"/>
    </edge>
    <edge id=":J1_4" function="internal">
        <lane id=":J1_4_0" index="0" speed="6.51" length="9.03" shape="-7.20,-1.60 -4.75,-1.95 -3.00,-3.00 -1.95,-4.75 -1.60,-7.20"/>
    </edge>
    <edge id=":J1_5" function="internal">
        <lane id=":J1_5_0" index="0" speed="13.89" length="14.40" shape="-7.20,-1.60 7.20,-1.60"/>
    </edge>
    <edge id=":J2_0" function="internal">
        <lane id=":J2_0_0" index="0" speed="13.89" length="14.40" shape="107.20,1.60 92.80,1.60"/>
    </edge>
    <edge id=":J2_1" function="internal">
        <lane id=":J2_1_0" index="0" speed="8.00" length="4.07" shape="107.20,1.60 103.35,1.05 103.20,0.96"/>
    </edge>
    <edge id=":J2_6" function="internal">
        <lane id=":J2_6_0" index="0" speed="8.00" length="10.13" shape="103.20,0.96 100.60,-0.60 98.95,-3.35 98.40,-7.20"/>
    </edge>
    <edge id=":J2_2" function="internal">
        <lane id=":J2_2_0" index="0" speed="6.51" length="9.03" shape="101.60,-7.20 101.95,-4.75 103.00,-3.00 104.75,-1.95 107.20,-1.60"/>
    </edge>
    <edge id=":J2_3" function="internal">
        <lane id=":J2_3_0" index="0" speed="8.00" length="14.19" shape="101.60,-7.20 101.05,-3.35 99.40,-0.60 96.65,1.05 92.80,1.60"/>
    </edge>
    <edge id=":J2_4" function="internal">
        <lane id=":J2_4_0" index="0" speed="6.51" length="9.03" shape="92.80,-1.60 95.25,-1.95 97.00,-3.00 98.05,-4.75 98.40,-7.20"/>
    </edge>
    <edge id=":J2_5" function="internal">
        <lane id=":J2_5_0" index="0" speed="13.89" length="14.40" shape="92.80,-1.60 107.20,-1.60"/>
    </edge>
    <edge id=":J3_0" function="internal">
        <lane id=":J3_0_0" index="0" speed="13.89" length="14.40" shape="207.20,1.60 192.80,1.60"/>
    </edge>
    <edge id=":J3_1" function="internal">
        <lane id=":J3_1_0" index="0" speed="8.00" length="4.07" shape="207.20,1.60 203.35,1.05 203.20,0.96"/>
    </edge>
    <edge id=":J3_6" function="internal">
        <lane id=":J3_6_0" index="0" speed="8.00" length="10.13" shape="203.20,0.96 200.60,-0.60 198.95,-3.35 198.40,-7.20"/>
    </edge>
    <edge id=":J3_2" function="internal">
        <lane id=":J3_2_0" index="0" speed="6.51" length="9.03" shape="201.60,-7.20 201.95,-4.75 203.00,-3.00 204.75,-1.95 207.20,-1.60"/>
    </edge>
    <edge id=":J3_3" function="internal">
        <lane id=":J3_3_0" index="0" speed="8.00" length="14.19" shape="201.60,-7.20 201.05,-3.35 199.40,-0.60 196.65,1.05 192.80,1.60"/>
    </edge>
    <edge id=":J3_4" function="internal">
        <lane id=":J3_4_0" index="0" speed="6.51" length="9.03" shape="192.80,-1.60 195.25,-1.95 197.00,-3.00 198.05,-4.75 198.40,-7.20"/>
    </edge>
    <edge id=":J3_5" function="internal">
        <lane id=":J3_5_0" index="0" speed="13.89" length="14.40" shape="192.80,-1.60 207.20,-1.60"/>
    </edge>
    <edge id=":J6_0" function="internal">
        <lane id=":J6_0_0" index="0" speed="6.51" length="9.03" shape="-1.60,-92.80 -1.95,-95.25 -3.00,-97.00 -4.75,-98.05 -7.20,-98.40"/>
    </edge>
    <edge id=":J6_1" function="internal">
        <lane id=":J6_1_0" index="0" speed="8.00" length="14.19" shape="-1.60,-92.80 -1.05,-96.65 0.60,-99.40 3.35,-101.05 7.20,-101.60"/>
    </edge>
    <edge id=":J6_2" function="internal">
        <lane id=":J6_2_0" index="0" speed="6.51" length="9.03" shape="7.20,-98.40 4.75,-98.05 3.00,-97.00 1.95,-95.25 1.60,-92.80"/>
    </edge>
    <edge id=":J6_3" function="internal">
        <lane id=":J6_3_0" index="0" speed="13.89" length="14.40" shape="7.20,-98.40 -7.20,-98.40"/>
    </edge>
    <edge id=":J6_4" function="internal">
        <lane id=":J6_4_0" index="0" speed="13.89" length="14.40" shape="-7.20,-101.60 7.20,-101.60"/>
    </edge>
    <edge id=":J6_5" function="internal">
        <lane id=":J6_5_0" index="0" speed="8.00" length="4.07" shape="-7.20,-101.60 -3.35,-101.05 -3.20,-100.96"/>
    </edge>
    <edge id=":J6_6" function="internal">
        <lane id=":J6_6_0" index="0" speed="8.00" length="10.13" shape="-3.20,-100.96 -0.60,-99.40 1.05,-96.65 1.60,-92.80"/>
    </edge>
    <edge id=":J7_0" function="internal">
        <lane id=":J7_0_0" index="0" speed="6.51" length="9.03" shape="98.40,-92.80 98.05,-95.25 97.00,-97.00 95.25,-98.05 92.80,-98.40"/>
    </edge>
    <edge id=":J7_1" function="internal">
        <lane id=":J7_1_0" index="0" speed="8.00" length="14.19" shape="98.40,-92.80 98.95,-96.65 100.60,-99.40 103.35,-101.05 107.20,-101.60"/>
    </edge>
    <edge id=":J7_2" function="internal">
        <lane id=":J7_2_0" index="0" speed="6.51" length="9.03" shape="107.20,-98.40 104.75,-98.05 103.00,-97.00 101.95,-95.25 101.60,-92.80"/>
    </edge>
    <edge id=":J7_3" function="internal">
        <lane id=":J7_3_0" index="0" speed="13.89" length="14.40" shape="107.20,-98.40 92.80,-98.40"/>
    </edge>
    <edge id=":J7_4" function="internal">
        <lane id=":J7_4_0" index="0" speed="13.89" length="14.40" shape="92.80,-101.60 107.20,-101.60"/>
    </edge>
    <edge id=":J7_5" function="internal">
        <lane id=":J7_5_0" index="0" speed="8.00" length="4.07" shape="92.80,-101.60 96.65,-101.05 96.80,-100.96"/>
    </edge>
    <edge id=":J7_6" function="internal">
        <lane id=":J7_6_0" index="0" speed="8.00" length="10.13" shape="96.80,-100.96 99.40,-99.40 101.05,-96.65 101.60,-92.80"/>
    </edge>
    <edge id=":J8_0" function="internal">
        <lane id=":J8_0_0" index="0" speed="6.51" length="9.03" shape="198.40,-92.80 198.05,-95.25 197.00,-97.00 195.25,-98.05 192.80,-98.40"/>
    </edge>
    <edge id=":J8_1" function="internal">
        <lane id=":J8_1_0" index="0" speed="8.00" length="14.19" shape="198.40,-92.80 198.95,-96.65 200.60,-99.40 203.35,-101.05 207.20,-101.60"/>
    </edge>
    <edge id=":J8_2" function="internal">
        <lane id=":J8_2_0" index="0" speed="6.51" length="9.03" shape="207.20,-98.40 204.75,-98.05 203.00,-97.00 201.95,-95.25 201.60,-92.80"/>
    </edge>
    <edge id=":J8_3" function="internal">
        <lane id=":J8_3_0" index="0" speed="13.89" length="14.40" shape="207.20,-98.40 192.80,-98.40"/>
    </edge>
    <edge id=":J8_4" function="internal">
        <lane id=":J8_4_0" index="0" speed="13.89" length="14.40" shape="192.80,-101.60 207.20,-101.60"/>
    </edge>
    <edge id=":J8_5" function="internal">
        <lane id=":J8_5_0" index="0" speed="8.00" length="4.07" shape="192.80,-101.60 196.65,-101.05 196.80,-100.96"/>
    </edge>
    <edge id=":J8_6" function="internal">
        <lane id=":J8_6_0" index="0" speed="8.00" length="10.13" shape="196.80,-100.96 199.40,-99.40 201.05,-96.65 201.60,-92.80"/>
    </edge>

    <edge id="-E0" from="J1" to="J0" priority="-1">
        <lane id="-E0_0" index="0" speed="13.89" length="92.80" shape="-7.20,1.60 -100.00,1.60"/>
    </edge>
    <edge id="-E1" from="J2" to="J1" priority="-1">
        <lane id="-E1_0" index="0" speed="13.89" length="85.60" shape="92.80,1.60 7.20,1.60"/>
    </edge>
    <edge id="-E10" from="J1" to="J6" priority="-1">
        <lane id="-E10_0" index="0" speed="13.89" length="85.60" shape="-1.60,-7.20 -1.60,-92.80"/>
    </edge>
    <edge id="-E2" from="J3" to="J2" priority="-1">
        <lane id="-E2_0" index="0" speed="13.89" length="85.60" shape="192.80,1.60 107.20,1.60"/>
    </edge>
    <edge id="-E3" from="J4" to="J3" priority="-1">
        <lane id="-E3_0" index="0" speed="13.89" length="92.80" shape="300.00,1.60 207.20,1.60"/>
    </edge>
    <edge id="-E4" from="J6" to="J5" priority="-1">
        <lane id="-E4_0" index="0" speed="13.89" length="92.80" shape="-7.20,-98.40 -100.00,-98.40"/>
    </edge>
    <edge id="-E5" from="J7" to="J6" priority="-1">
        <lane id="-E5_0" index="0" speed="13.89" length="85.60" shape="92.80,-98.40 7.20,-98.40"/>
    </edge>
    <edge id="-E6" from="J8" to="J7" priority="-1">
        <lane id="-E6_0" index="0" speed="13.89" length="85.60" shape="192.80,-98.40 107.20,-98.40"/>
    </edge>
    <edge id="-E7" from="J9" to="J8" priority="-1">
        <lane id="-E7_0" index="0" speed="13.89" length="92.80" shape="300.00,-98.40 207.20,-98.40"/>
    </edge>
    <edge id="-E8" from="J3" to="J8" priority="-1">
        <lane id="-E8_0" index="0" speed="13.89" length="85.60" shape="198.40,-7.20 198.40,-92.80"/>
    </edge>
    <edge id="-E9" from="J2" to="J7" priority="-1">
        <lane id="-E9_0" index="0" speed="13.89" length="85.60" shape="98.40,-7.20 98.40,-92.80"/>
    </edge>
    <edge id="E0" from="J0" to="J1" priority="-1">
        <lane id="E0_0" index="0" speed="13.89" length="92.80" shape="-100.00,-1.60 -7.20,-1.60"/>
    </edge>
    <edge id="E1" from="J1" to="J2" priority="-1">
        <lane id="E1_0" index="0" speed="13.89" length="85.60" shape="7.20,-1.60 92.80,-1.60"/>
    </edge>
    <edge id="E10" from="J6" to="J1" priority="-1">
        <lane id="E10_0" index="0" speed="13.89" length="85.60" shape="1.60,-92.80 1.60,-7.20"/>
    </edge>
    <edge id="E2" from="J2" to="J3" priority="-1">
        <lane id="E2_0" index="0" speed="13.89" length="85.60" shape="107.20,-1.60 192.80,-1.60"/>
    </edge>
    <edge id="E3" from="J3" to="J4" priority="-1">
        <lane id="E3_0" index="0" speed="13.89" length="92.80" shape="207.20,-1.60 300.00,-1.60"/>
    </edge>
    <edge id="E4" from="J5" to="J6" priority="-1">
        <lane id="E4_0" index="0" speed="13.89" length="92.80" shape="-100.00,-101.60 -7.20,-101.60"/>
    </edge>
    <edge id="E5" from="J6" to="J7" priority="-1">
        <lane id="E5_0" index="0" speed="13.89" length="85.60" shape="7.20,-101.60 92.80,-101.60"/>
    </edge>
    <edge id="E6" from="J7" to="J8" priority="-1">
        <lane id="E6_0" index="0" speed="13.89" length="85.60" shape="107.20,-101.60 192.80,-101.60"/>
    </edge>
    <edge id="E7" from="J8" to="J9" priority="-1">
        <lane id="E7_0" index="0" speed="13.89" length="92.80" shape="207.20,-101.60 300.00,-101.60"/>
    </edge>
    <edge id="E8" from="J8" to="J3" priority="-1">
        <lane id="E8_0" index="0" speed="13.89" length="85.60" shape="201.60,-92.80 201.60,-7.20"/>
    </edge>
    <edge id="E9" from="J7" to="J2" priority="-1">
        <lane id="E9_0" index="0" speed="13.89" length="85.60" shape="101.60,-92.80 101.60,-7.20"/>
    </edge>

    <junction id="J0" type="dead_end" x="-100.00" y="0.00" incLanes="-E0_0" intLanes="" shape="-100.00,0.00 -100.00,3.20 -100.00,0.00"/>
    <junction id="J1" type="priority" x="0.00" y="0.00" incLanes="-E1_0 E10_0 E0_0" intLanes=":J1_0_0 :J1_6_0 :J1_2_0 :J1_3_0 :J1_4_0 :J1_5_0" shape="7.20,3.20 7.20,-3.20 4.98,-3.64 4.20,-4.20 3.64,-4.98 3.31,-5.98 3.20,-7.20 -3.20,-7.20 -3.64,-4.98 -4.20,-4.20 -4.98,-3.64 -5.98,-3.31 -7.20,-3.20 -7.20,3.20">
        <request index="0" response="000000" foes="001000" cont="0"/>
        <request index="1" response="110000" foes="111000" cont="1"/>
        <request index="2" response="100000" foes="100000" cont="0"/>
        <request index="3" response="100011" foes="100011" cont="0"/>
        <request index="4" response="000000" foes="000010" cont="0"/>
        <request index="5" response="000000" foes="001110" cont="0"/>
    </junction>
    <junction id="J2" type="priority" x="100.00" y="0.00" incLanes="-E2_0 E9_0 E1_0" intLanes=":J2_0_0 :J2_6_0 :J2_2_0 :J2_3_0 :J2_4_0 :J2_5_0" shape="107.20,3.20 107.20,-3.20 104.98,-3.64 104.20,-4.20 103.64,-4.98 103.31,-5.98 103.20,-7.20 96.80,-7.20 96.36,-4.98 95.80,-4.20 95.02,-3.64 94.02,-3.31 92.80,-3.20 92.80,3.20">
        <request index="0" response="000000" foes="001000" cont="0"/>
        <request index="1" response="110000" foes="111000" cont="1"/>
        <request index="2" response="100000" foes="100000" cont="0"/>
        <request index="3" response="100011" foes="100011" cont="0"/>
        <request index="4" response="000000" foes="000010" cont="0"/>
        <request index="5" response="000000" foes="001110" cont="0"/>
    </junction>
    <junction id="J3" type="priority" x="200.00" y="0.00" incLanes="-E3_0 E8_0 E2_0" intLanes=":J3_0_0 :J3_6_0 :J3_2_0 :J3_3_0 :J3_4_0 :J3_5_0" shape="207.20,3.20 207.20,-3.20 204.98,-3.64 204.20,-4.20 203.64,-4.98 203.31,-5.98 203.20,-7.20 196.80,-7.20 196.36,-4.98 195.80,-4.20 195.02,-3.64 194.02,-3.31 192.80,-3.20 192.80,3.20">
        <request index="0" response="000000" foes="001000" cont="0"/>
        <request index="1" response="110000" foes="111000" cont="1"/>
        <request index="2" response="100000" foes="100000" cont="0"/>
        <request index="3" response="100011" foes="100011" cont="0"/>
        <request index="4" response="000000" foes="000010" cont="0"/>
        <request index="5" response="000000" foes="001110" cont="0"/>
    </junction>
    <junction id="J4" type="dead_end" x="300.00" y="0.00" incLanes="E3_0" intLanes="" shape="300.00,0.00 300.00,-3.20 300.00,0.00"/>
    <junction id="J5" type="dead_end" x="-100.00" y="-100.00" incLanes="-E4_0" intLanes="" shape="-100.00,-100.00 -100.00,-96.80 -100.00,-100.00"/>
    <junction id="J6" type="priority" x="0.00" y="-100.00" incLanes="-E10_0 -E5_0 E4_0" intLanes=":J6_0_0 :J6_1_0 :J6_2_0 :J6_3_0 :J6_4_0 :J6_6_0" shape="-3.20,-92.80 3.20,-92.80 3.64,-95.02 4.20,-95.80 4.98,-96.36 5.98,-96.69 7.20,-96.80 7.20,-103.20 -7.20,-103.20 -7.20,-96.80 -4.98,-96.36 -4.20,-95.80 -3.64,-95.02 -3.31,-94.02">
        <request index="0" response="001000" foes="001000" cont="0"/>
        <request index="1" response="111000" foes="111000" cont="0"/>
        <request index="2" response="000000" foes="100000" cont="0"/>
        <request index="3" response="000000" foes="100011" cont="0"/>
        <request index="4" response="000000" foes="000010" cont="0"/>
        <request index="5" response="001100" foes="001110" cont="1"/>
    </junction>
    <junction id="J7" type="priority" x="100.00" y="-100.00" incLanes="-E9_0 -E6_0 E5_0" intLanes=":J7_0_0 :J7_1_0 :J7_2_0 :J7_3_0 :J7_4_0 :J7_6_0" shape="96.80,-92.80 103.20,-92.80 103.64,-95.02 104.20,-95.80 104.98,-96.36 105.98,-96.69 107.20,-96.80 107.20,-103.20 92.80,-103.20 92.80,-96.80 95.02,-96.36 95.80,-95.80 96.36,-95.02 96.69,-94.02">
        <request index="0" response="001000" foes="001000" cont="0"/>
        <request index="1" response="111000" foes="111000" cont="0"/>
        <request index="2" response="000000" foes="100000" cont="0"/>
        <request index="3" response="000000" foes="100011" cont="0"/>
        <request index="4" response="000000" foes="000010" cont="0"/>
        <request index="5" response="001100" foes="001110" cont="1"/>
    </junction>
    <junction id="J8" type="priority" x="200.00" y="-100.00" incLanes="-E8_0 -E7_0 E6_0" intLanes=":J8_0_0 :J8_1_0 :J8_2_0 :J8_3_0 :J8_4_0 :J8_6_0" shape="196.80,-92.80 203.20,-92.80 203.64,-95.02 204.20,-95.80 204.98,-96.36 205.98,-96.69 207.20,-96.80 207.20,-103.20 192.80,-103.20 192.80,-96.80 195.02,-96.36 195.80,-95.80 196.36,-95.02 196.69,-94.02">
        <request index="0" response="001000" foes="001000" cont="0"/>
        <request index="1" response="111000" foes="111000" cont="0"/>
        <request index="2" response="000000" foes="100000" cont="0"/>
        <request index="3" response="000000" foes="100011" cont="0"/>
        <request index="4" response="000000" foes="000010" cont="0"/>
        <request index="5" response="001100" foes="001110" cont="1"/>
    </junction>
    <junction id="J9" type="dead_end" x="300.00" y="-100.00" incLanes="E7_0" intLanes="" shape="300.00,-100.00 300.00,-103.20 300.00,-100.00"/>

    <junction id=":J1_6_0" type="internal" x="3.20" y="0.96" incLanes=":J1_1_0 E0_0" intLanes=":J1_3_0 :J1_4_0 :J1_5_0"/>
    <junction id=":J2_6_0" type="internal" x="103.20" y="0.96" incLanes=":J2_1_0 E1_0" intLanes=":J2_3_0 :J2_4_0 :J2_5_0"/>
    <junction id=":J3_6_0" type="internal" x="203.20" y="0.96" incLanes=":J3_1_0 E2_0" intLanes=":J3_3_0 :J3_4_0 :J3_5_0"/>
    <junction id=":J6_6_0" type="internal" x="-3.20" y="-100.96" incLanes=":J6_5_0 -E5_0" intLanes=":J6_1_0 :J6_2_0 :J6_3_0"/>
    <junction id=":J7_6_0" type="internal" x="96.80" y="-100.96" incLanes=":J7_5_0 -E6_0" intLanes=":J7_1_0 :J7_2_0 :J7_3_0"/>
    <junction id=":J8_6_0" type="internal" x="196.80" y="-100.96" incLanes=":J8_5_0 -E7_0" intLanes=":J8_1_0 :J8_2_0 :J8_3_0"/>

    <connection from="-E1" to="-E0" fromLane="0" toLane="0" via=":J1_0_0" dir="s" state="M"/>
    <connection from="-E1" to="-E10" fromLane="0" toLane="0" via=":J1_1_0" dir="l" state="m"/>
    <connection from="-E10" to="-E4" fromLane="0" toLane="0" via=":J6_0_0" dir="r" state="m"/>
    <connection from="-E10" to="E5" fromLane="0" toLane="0" via=":J6_1_0" dir="l" state="m"/>
    <connection from="-E2" to="-E1" fromLane="0" toLane="0" via=":J2_0_0" dir="s" state="M"/>
    <connection from="-E2" to="-E9" fromLane="0" toLane="0" via=":J2_1_0" dir="l" state="m"/>
    <connection from="-E3" to="-E2" fromLane="0" toLane="0" via=":J3_0_0" dir="s" state="M"/>
    <connection from="-E3" to="-E8" fromLane="0" toLane="0" via=":J3_1_0" dir="l" state="m"/>
    <connection from="-E5" to="E10" fromLane="0" toLane="0" via=":J6_2_0" dir="r" state="M"/>
    <connection from="-E5" to="-E4" fromLane="0" toLane="0" via=":J6_3_0" dir="s" state="M"/>
    <connection from="-E6" to="E9" fromLane="0" toLane="0" via=":J7_2_0" dir="r" state="M"/>
    <connection from="-E6" to="-E5" fromLane="0" toLane="0" via=":J7_3_0" dir="s" state="M"/>
    <connection from="-E7" to="E8" fromLane="0" toLane="0" via=":J8_2_0" dir="r" state="M"/>
    <connection from="-E7" to="-E6" fromLane="0" toLane="0" via=":J8_3_0" dir="s" state="M"/>
    <connection from="-E8" to="-E6" fromLane="0" toLane="0" via=":J8_0_0" dir="r" state="m"/>
    <connection from="-E8" to="E7" fromLane="0" toLane="0" via=":J8_1_0" dir="l" state="m"/>
    <connection from="-E9" to="-E5" fromLane="0" toLane="0" via=":J7_0_0" dir="r" state="m"/>
    <connection from="-E9" to="E6" fromLane="0" toLane="0" via=":J7_1_0" dir="l" state="m"/>
    <connection from="E0" to="-E10" fromLane="0" toLane="0" via=":J1_4_0" dir="r" state="M"/>
    <connection from="E0" to="E1" fromLane="0" toLane="0" via=":J1_5_0" dir="s" state="M"/>
    <connection from="E1" to="-E9" fromLane="0" toLane="0" via=":J2_4_0" dir="r" state="M"/>
    <connection from="E1" to="E2" fromLane="0" toLane="0" via=":J2_5_0" dir="s" state="M"/>
    <connection from="E10" to="E1" fromLane="0" toLane="0" via=":J1_2_0" dir="r" state="m"/>
    <connection from="E10" to="-E0" fromLane="0" toLane="0" via=":J1_3_0" dir="l" state="m"/>
    <connection from="E2" to="-E8" fromLane="0" toLane="0" via=":J3_4_0" dir="r" state="M"/>
    <connection from="E2" to="E3" fromLane="0" toLane="0" via=":J3_5_0" dir="s" state="M"/>
    <connection from="E4" to="E5" fromLane="0" toLane="0" via=":J6_4_0" dir="s" state="M"/>
    <connection from="E4" to="E10" fromLane="0" toLane="0" via=":J6_5_0" dir="l" state="m"/>
    <connection from="E5" to="E6" fromLane="0" toLane="0" via=":J7_4_0" dir="s" state="M"/>
    <connection from="E5" to="E9" fromLane="0" toLane="0" via=":J7_5_0" dir="l" state="m"/>
    <connection from="E6" to="E7" fromLane="0" toLane="0" via=":J8_4_0" dir="s" state="M"/>
    <connection from="E6" to="E8" fromLane="0" toLane="0" via=":J8_5_0" dir="l" state="m"/>
    <connection from="E8" to="E3" fromLane="0" toLane="0" via=":J3_2_0" dir="r" state="m"/>
    <connection from="E8" to="-E2" fromLane="0" toLane="0" via=":J3_3_0" dir="l" state="m"/>
    <connection from="E9" to="E2" fromLane="0" toLane="0" via=":J2_2_0" dir="r" state="m"/>
    <connection from="E9" to="-E1" fromLane="0" toLane="0" via=":J2_3_0" dir="l" state="m"/>

    <connection from=":J1_0" to="-E0" fromLane="0" toLane="0" dir="s" state="M"/>
    <connection from=":J1_1" to="-E10" fromLane="0" toLane="0" via=":J1_6_0" dir="l" state="m"/>
    <connection from=":J1_6" to="-E10" fromLane="0" toLane="0" dir="l" state="M"/>
    <connection from=":J1_2" to="E1" fromLane="0" toLane="0" dir="r" state="M"/>
    <connection from=":J1_3" to="-E0" fromLane="0" toLane="0" dir="l" state="M"/>
    <connection from=":J1_4" to="-E10" fromLane="0" toLane="0" dir="r" state="M"/>
    <connection from=":J1_5" to="E1" fromLane="0" toLane="0" dir="s" state="M"/>
    <connection from=":J2_0" to="-E1" fromLane="0" toLane="0" dir="s" state="M"/>
    <connection from=":J2_1" to="-E9" fromLane="0" toLane="0" via=":J2_6_0" dir="l" state="m"/>
    <connection from=":J2_6" to="-E9" fromLane="0" toLane="0" dir="l" state="M"/>
    <connection from=":J2_2" to="E2" fromLane="0" toLane="0" dir="r" state="M"/>
    <connection from=":J2_3" to="-E1" fromLane="0" toLane="0" dir="l" state="M"/>
    <connection from=":J2_4" to="-E9" fromLane="0" toLane="0" dir="r" state="M"/>
    <connection from=":J2_5" to="E2" fromLane="0" toLane="0" dir="s" state="M"/>
    <connection from=":J3_0" to="-E2" fromLane="0" toLane="0" dir="s" state="M"/>
    <connection from=":J3_1" to="-E8" fromLane="0" toLane="0" via=":J3_6_0" dir="l" state="m"/>
    <connection from=":J3_6" to="-E8" fromLane="0" toLane="0" dir="l" state="M"/>
    <connection from=":J3_2" to="E3" fromLane="0" toLane="0" dir="r" state="M"/>
    <connection from=":J3_3" to="-E2" fromLane="0" toLane="0" dir="l" state="M"/>
    <connection from=":J3_4" to="-E8" fromLane="0" toLane="0" dir="r" state="M"/>
    <connection from=":J3_5" to="E3" fromLane="0" toLane="0" dir="s" state="M"/>
    <connection from=":J6_0" to="-E4" fromLane="0" toLane="0" dir="r" state="M"/>
    <connection from=":J6_1" to="E5" fromLane="0" toLane="0" dir="l" state="M"/>
    <connection from=":J6_2" to="E10" fromLane="0" toLane="0" dir="r" state="M"/>
    <connection from=":J6_3" to="-E4" fromLane="0" toLane="0" dir="s" state="M"/>
    <connection from=":J6_4" to="E5" fromLane="0" toLane="0" dir="s" state="M"/>
    <connection from=":J6_5" to="E10" fromLane="0" toLane="0" via=":J6_6_0" dir="l" state="m"/>
    <connection from=":J6_6" to="E10" fromLane="0" toLane="0" dir="l" state="M"/>
    <connection from=":J7_0" to="-E5" fromLane="0" toLane="0" dir="r" state="M"/>
    <connection from=":J7_1" to="E6" fromLane="0" toLane="0" dir="l" state="M"/>
    <connection from=":J7_2" to="E9" fromLane="0" toLane="0" dir="r" state="M"/>
    <connection from=":J7_3" to="-E5" fromLane="0" toLane="0" dir="s" state="M"/>
    <connection from=":J7_4" to="E6" fromLane="0" toLane="0" dir="s" state="M"/>
    <connection from=":J7_5" to="E9" fromLane="0" toLane="0" via=":J7_6_0" dir="l" state="m"/>
    <connection from=":J7_6" to="E9" fromLane="0" toLane="0" dir="l" state="M"/>
    <connection from=":J8_0" to="-E6" fromLane="0" toLane="0" dir="r" state="M"/>
    <connection from=":J8_1" to="E7" fromLane="0" toLane="0" dir="l" state="M"/>
    <connection from=":J8_2" to="E8" fromLane="0" toLane="0" dir="r" state="M"/>
    <connection from=":J8_3" to="-E6" fromLane="0" toLane="0" dir="s" state="M"/>
    <connection from=":J8_4" to="E7" fromLane="0" toLane="0" dir="s" state="M"/>
    <connection from=":J8_5" to="E8" fromLane="0" toLane="0" via=":J8_6_0" dir="l" state="m"/>
    <connection from=":J8_6" to="E8" fromLane="0" toLane="0" dir="l" state="M"/>

</net>
