<?xml version="1.0" encoding="UTF-8"?>

<!-- generated on 2024-11-05 13:00:50 by Eclipse SUMO duarouter Version v1_21_0+0546-c8b591674a3
<duarouterConfiguration xmlns:xsi="http://www.w3.org/2001/XMLSchema-instance" xsi:noNamespaceSchemaLocation="http://sumo.dlr.de/xsd/duarouterConfiguration.xsd">

    <input>
        <net-file value="junction.net.xml"/>
        <route-files value="junction.trips.xml"/>
    </input>

    <output>
        <output-file value="junction.rou.xml"/>
    </output>

</duarouterConfiguration>
-->

<routes xmlns:xsi="http://www.w3.org/2001/XMLSchema-instance" xsi:noNamespaceSchemaLocation="http://sumo.dlr.de/xsd/routes_file.xsd">
    <!--<vType id="krauss_0.5" length="4.50" minGap="0.00" maxSpeed="35.00" vClass="passenger" guiShape="passenger" color="blue" sigma="0.5"/>
    <vType id="krauss_0.75" length="4.50" minGap="0.00" maxSpeed="45.00" vClass="passenger" guiShape="passenger" color="red" sigma="0.75"/>
    <vType id="cacc" length="4.50" minGap="0.00" maxSpeed="35.00" vClass="passenger" guiShape="passenger" color="green" carFollowModel="CACC"/> 
    -->
    
    <vehicle id="0" type="krauss_0.5" depart="0.00">
        <route edges="E0 E1 E9 -E5 -E10 -E0"/>
    </vehicle>
    <vehicle id="1" type="krauss_0.75" depart="3.00">
        <route edges="E0 E1 E9 -E5 -E10 -E0"/>
    </vehicle>
    <vehicle id="2" type="cacc" depart="6.00">
        <route edges="E0 E1 E9 -E5 -E10 -E0"/>
    </vehicle>
    <vehicle id="3" type="krauss_0.5" depart="9.00">
        <route edges="-E6 -E5 -E10 E1 E9 E6 -E8 -E2"/>
    </vehicle>
    <vehicle id="4" type="krauss_0.75" depart="12.00">
        <route edges="-E6 -E5 -E10 E1 E9 E6 -E8 -E2"/>
    </vehicle>
    <vehicle id="5" type="cacc" depart="15.00">
        <route edges="-E6 -E5 -E10 E1 E9 E6 -E8 -E2"/>
    </vehicle>
    <vehicle id="6" type="krauss_0.5" depart="18.00">
        <route edges="E2 E3"/>
    </vehicle>
    <vehicle id="7" type="krauss_0.75" depart="21.00">
        <route edges="E2 E3"/>
    </vehicle>
    <vehicle id="8" type="cacc" depart="24.00">
        <route edges="E2 E3"/>
    </vehicle>
    <vehicle id="9" type="krauss_0.5" depart="27.00">
        <route edges="E4 -E10 -E0"/>
    </vehicle>
    <vehicle id="10" type="krauss_0.75" depart="30.00">
        <route edges="E4 -E10 -E0"/>
    </vehicle>
    <vehicle id="11" type="cacc" depart="33.00">
        <route edges="E4 -E10 -E0"/>
    </vehicle>
    <vehicle id="12" type="krauss_0.5" depart="36.00">
        <route edges="-E7 -E6 -E9 -E1 -E0"/>
    </vehicle>
    <vehicle id="13" type="krauss_0.75" depart="39.00">
        <route edges="-E7 -E6 -E9 -E1 -E0"/>
    </vehicle>
    <vehicle id="14" type="cacc" depart="42.00">
        <route edges="-E7 -E6 -E9 -E1 -E0"/>
    </vehicle>
    <vehicle id="15" type="krauss_0.5" depart="45.00">
        <route edges="-E3 -E2 E9 -E5 -E10 E1"/>
    </vehicle>
    <vehicle id="16" type="krauss_0.75" depart="48.00">
        <route edges="-E3 -E2 E9 -E5 -E10 E1"/>
    </vehicle>
    <vehicle id="17" type="cacc" depart="51.00">
        <route edges="-E3 -E2 E9 -E5 -E10 E1"/>
    </vehicle>
    <vehicle id="18" type="krauss_0.5" depart="54.00">
        <route edges="-E10 E1 E2 E8 -E6 -E9 -E1"/>
    </vehicle>
    <vehicle id="19" type="krauss_0.75" depart="57.00">
        <route edges="-E10 E1 E2 E8 -E6 -E9 -E1"/>
    </vehicle>
    <vehicle id="20" type="cacc" depart="60.00">
        <route edges="-E10 E1 E2 E8 -E6 -E9 -E1"/>
    </vehicle>
    <vehicle id="21" type="krauss_0.5" depart="63.00">
        <route edges="E0 E1 E2"/>
    </vehicle>
    <vehicle id="22" type="krauss_0.75" depart="66.00">
        <route edges="E0 E1 E2"/>
    </vehicle>
    <vehicle id="23" type="cacc" depart="69.00">
        <route edges="E0 E1 E2"/>
    </vehicle>
    <vehicle id="24" type="krauss_0.5" depart="72.00">
        <route edges="-E3 E8 -E6 -E9 E2 E3"/>
    </vehicle>
    <vehicle id="25" type="krauss_0.75" depart="75.00">
        <route edges="-E3 E8 -E6 -E9 E2 E3"/>
    </vehicle>
    <vehicle id="26" type="cacc" depart="78.00">
        <route edges="-E3 E8 -E6 -E9 E2 E3"/>
    </vehicle>
    <vehicle id="27" type="krauss_0.5" depart="81.00">
        <route edges="E4 -E10 -E0"/>
    </vehicle>
    <vehicle id="28" type="krauss_0.75" depart="84.00">
        <route edges="E4 -E10 -E0"/>
    </vehicle>
    <vehicle id="29" type="cacc" depart="87.00">
        <route edges="E4 -E10 -E0"/>
    </vehicle>
    <vehicle id="30" type="krauss_0.5" depart="90.00">
        <route edges="E4 E5 E6 -E8 E3"/>
    </vehicle>
    <vehicle id="31" type="krauss_0.75" depart="93.00">
        <route edges="E4 E5 E6 -E8 E3"/>
    </vehicle>
    <vehicle id="32" type="cacc" depart="96.00">
        <route edges="E4 E5 E6 -E8 E3"/>
    </vehicle>
    <vehicle id="33" type="krauss_0.5" depart="99.00">
        <route edges="-E7 -E6 -E9 -E1 -E0"/>
    </vehicle>
    <vehicle id="34" type="krauss_0.75" depart="102.00">
        <route edges="-E7 -E6 -E9 -E1 -E0"/>
    </vehicle>
    <vehicle id="35" type="cacc" depart="105.00">
        <route edges="-E7 -E6 -E9 -E1 -E0"/>
    </vehicle>
    <vehicle id="36" type="krauss_0.5" depart="108.00">
        <route edges="E6 -E8 -E2 -E1 E10 -E4"/>
    </vehicle>
    <vehicle id="37" type="krauss_0.75" depart="111.00">
        <route edges="E6 -E8 -E2 -E1 E10 -E4"/>
    </vehicle>
    <vehicle id="38" type="cacc" depart="114.00">
        <route edges="E6 -E8 -E2 -E1 E10 -E4"/>
    </vehicle>
    <vehicle id="39" type="krauss_0.5" depart="117.00">
        <route edges="-E3 -E2 -E1 -E0"/>
    </vehicle>
    <vehicle id="40" type="krauss_0.75" depart="120.00">
        <route edges="-E3 -E2 -E1 -E0"/>
    </vehicle>
    <vehicle id="41" type="cacc" depart="123.00">
        <route edges="-E3 -E2 -E1 -E0"/>
    </vehicle>
    <vehicle id="42" type="krauss_0.5" depart="126.00">
        <route edges="E4 E5 E6 -E8 E3"/>
    </vehicle>
    <vehicle id="43" type="krauss_0.75" depart="129.00">
        <route edges="E4 E5 E6 -E8 E3"/>
    </vehicle>
    <vehicle id="44" type="cacc" depart="132.00">
        <route edges="E4 E5 E6 -E8 E3"/>
    </vehicle>
    <vehicle id="45" type="krauss_0.5" depart="135.00">
        <route edges="E4 E5 E6 -E8 E3"/>
    </vehicle>
    <vehicle id="46" type="krauss_0.75" depart="138.00">
        <route edges="E4 E5 E6 -E8 E3"/>
    </vehicle>
    <vehicle id="47" type="cacc" depart="141.00">
        <route edges="E4 E5 E6 -E8 E3"/>
    </vehicle>
    <vehicle id="48" type="krauss_0.5" depart="144.00">
        <route edges="E0 E1 E2 E8"/>
    </vehicle>
    <vehicle id="49" type="krauss_0.75" depart="147.00">
        <route edges="E0 E1 E2 E8"/>
    </vehicle>
    <vehicle id="50" type="cacc" depart="150.00">
        <route edges="E0 E1 E2 E8"/>
    </vehicle>
    <vehicle id="51" type="krauss_0.5" depart="153.00">
        <route edges="-E7 -E6 -E9 E2"/>
    </vehicle>
    <vehicle id="52" type="krauss_0.75" depart="156.00">
        <route edges="-E7 -E6 -E9 E2"/>
    </vehicle>
    <vehicle id="53" type="cacc" depart="159.00">
        <route edges="-E7 -E6 -E9 E2"/>
    </vehicle>
    <vehicle id="54" type="krauss_0.5" depart="162.00">
        <route edges="E4 E5 E6 -E8 E3"/>
    </vehicle>
    <vehicle id="55" type="krauss_0.75" depart="165.00">
        <route edges="E4 E5 E6 -E8 E3"/>
    </vehicle>
    <vehicle id="56" type="cacc" depart="168.00">
        <route edges="E4 E5 E6 -E8 E3"/>
    </vehicle>
    <vehicle id="57" type="krauss_0.5" depart="171.00">
        <route edges="E4 E5 E6 -E8 E3"/>
    </vehicle>
    <vehicle id="58" type="krauss_0.75" depart="174.00">
        <route edges="E4 E5 E6 -E8 E3"/>
    </vehicle>
    <vehicle id="59" type="cacc" depart="177.00">
        <route edges="E4 E5 E6 -E8 E3"/>
    </vehicle>
    <vehicle id="60" type="krauss_0.5" depart="180.00">
        <route edges="E10 E5 -E9 -E1 -E0"/>
    </vehicle>
    <vehicle id="61" type="krauss_0.75" depart="183.00">
        <route edges="E10 E5 -E9 -E1 -E0"/>
    </vehicle>
    <vehicle id="62" type="cacc" depart="186.00">
        <route edges="E10 E5 -E9 -E1 -E0"/>
    </vehicle>
    <vehicle id="63" type="krauss_0.5" depart="189.00">
        <route edges="-E3 -E2 -E1 E10 -E4"/>
    </vehicle>
    <vehicle id="64" type="krauss_0.75" depart="192.00">
        <route edges="-E3 -E2 -E1 E10 -E4"/>
    </vehicle>
    <vehicle id="65" type="cacc" depart="195.00">
        <route edges="-E3 -E2 -E1 E10 -E4"/>
    </vehicle>
    <vehicle id="66" type="krauss_0.5" depart="198.00">
        <route edges="-E3 -E2"/>
    </vehicle>
    <vehicle id="67" type="krauss_0.75" depart="201.00">
        <route edges="-E3 -E2"/>
    </vehicle>
    <vehicle id="68" type="cacc" depart="204.00">
        <route edges="-E3 -E2"/>
    </vehicle>
    <vehicle id="69" type="krauss_0.5" depart="207.00">
        <route edges="-E3 -E2 -E1 E10 -E4"/>
    </vehicle>
    <vehicle id="70" type="krauss_0.75" depart="210.00">
        <route edges="-E3 -E2 -E1 E10 -E4"/>
    </vehicle>
    <vehicle id="71" type="cacc" depart="213.00">
        <route edges="-E3 -E2 -E1 E10 -E4"/>
    </vehicle>
    <vehicle id="72" type="krauss_0.5" depart="216.00">
        <route edges="E0 E10 -E4"/>
    </vehicle>
    <vehicle id="73" type="krauss_0.75" depart="219.00">
        <route edges="E0 E10 -E4"/>
    </vehicle>
    <vehicle id="74" type="cacc" depart="222.00">
        <route edges="E0 E10 -E4"/>
    </vehicle>
    <vehicle id="75" type="krauss_0.5" depart="225.00">
        <route edges="-E7 -E6 -E5 -E10"/>
    </vehicle>
    <vehicle id="76" type="krauss_0.75" depart="228.00">
        <route edges="-E7 -E6 -E5 -E10"/>
    </vehicle>
    <vehicle id="77" type="cacc" depart="231.00">
        <route edges="-E7 -E6 -E5 -E10"/>
    </vehicle>
    <vehicle id="78" type="krauss_0.5" depart="234.00">
        <route edges="-E6 -E9 E2 E8 E7"/>
    </vehicle>
    <vehicle id="79" type="krauss_0.75" depart="237.00">
        <route edges="-E6 -E9 E2 E8 E7"/>
    </vehicle>
    <vehicle id="80" type="cacc" depart="240.00">
        <route edges="-E6 -E9 E2 E8 E7"/>
    </vehicle>
    <vehicle id="81" type="krauss_0.5" depart="243.00">
        <route edges="E0 E1 E2 E3"/>
    </vehicle>
    <vehicle id="82" type="krauss_0.75" depart="246.00">
        <route edges="E0 E1 E2 E3"/>
    </vehicle>
    <vehicle id="83" type="cacc" depart="249.00">
        <route edges="E0 E1 E2 E3"/>
    </vehicle>
    <vehicle id="84" type="krauss_0.5" depart="252.00">
        <route edges="-E3 E8 -E6 -E9 E2 E3"/>
    </vehicle>
    <vehicle id="85" type="krauss_0.75" depart="255.00">
        <route edges="-E3 E8 -E6 -E9 E2 E3"/>
    </vehicle>
    <vehicle id="86" type="cacc" depart="258.00">
        <route edges="-E3 E8 -E6 -E9 E2 E3"/>
    </vehicle>
    <vehicle id="87" type="krauss_0.5" depart="261.00">
        <route edges="-E3 -E2 -E1 E10 -E4"/>
    </vehicle>
    <vehicle id="88" type="krauss_0.75" depart="264.00">
        <route edges="-E3 -E2 -E1 E10 -E4"/>
    </vehicle>
    <vehicle id="89" type="cacc" depart="267.00">
        <route edges="-E3 -E2 -E1 E10 -E4"/>
    </vehicle>
    <vehicle id="90" type="krauss_0.5" depart="270.00">
        <route edges="E9 E6 -E8 E3"/>
    </vehicle>
    <vehicle id="91" type="krauss_0.75" depart="273.00">
        <route edges="E9 E6 -E8 E3"/>
    </vehicle>
    <vehicle id="92" type="cacc" depart="276.00">
        <route edges="E9 E6 -E8 E3"/>
    </vehicle>
    <vehicle id="93" type="krauss_0.5" depart="279.00">
        <route edges="E0 E1 E2 E3"/>
    </vehicle>
    <vehicle id="94" type="krauss_0.75" depart="282.00">
        <route edges="E0 E1 E2 E3"/>
    </vehicle>
    <vehicle id="95" type="cacc" depart="285.00">
        <route edges="E0 E1 E2 E3"/>
    </vehicle>
    <vehicle id="96" type="krauss_0.5" depart="288.00">
        <route edges="E4 E5 E6"/>
    </vehicle>
    <vehicle id="97" type="krauss_0.75" depart="291.00">
        <route edges="E4 E5 E6"/>
    </vehicle>
    <vehicle id="98" type="cacc" depart="294.00">
        <route edges="E4 E5 E6"/>
    </vehicle>
    <vehicle id="99" type="krauss_0.5" depart="297.00">
        <route edges="-E3 -E2 -E1 -E0"/>
    </vehicle>
    <vehicle id="100" type="krauss_0.75" depart="300.00">
        <route edges="-E3 -E2 -E1 -E0"/>
    </vehicle>
    <vehicle id="101" type="cacc" depart="303.00">
        <route edges="-E3 -E2 -E1 -E0"/>
    </vehicle>
    <vehicle id="102" type="krauss_0.5" depart="306.00">
        <route edges="-E7 -E6 -E5 -E4"/>
    </vehicle>
    <vehicle id="103" type="krauss_0.75" depart="309.00">
        <route edges="-E7 -E6 -E5 -E4"/>
    </vehicle>
    <vehicle id="104" type="cacc" depart="312.00">
        <route edges="-E7 -E6 -E5 -E4"/>
    </vehicle>
    <vehicle id="105" type="krauss_0.5" depart="315.00">
        <route edges="-E3 E8 E7"/>
    </vehicle>
    <vehicle id="106" type="krauss_0.75" depart="318.00">
        <route edges="-E3 E8 E7"/>
    </vehicle>
    <vehicle id="107" type="cacc" depart="321.00">
        <route edges="-E3 E8 E7"/>
    </vehicle>
    <vehicle id="108" type="krauss_0.5" depart="324.00">
        <route edges="E4 -E10 E1 E9 -E5 -E4"/>
    </vehicle>
    <vehicle id="109" type="krauss_0.75" depart="327.00">
        <route edges="E4 -E10 E1 E9 -E5 -E4"/>
    </vehicle>
    <vehicle id="110" type="cacc" depart="330.00">
        <route edges="E4 -E10 E1 E9 -E5 -E4"/>
    </vehicle>
    <vehicle id="111" type="krauss_0.5" depart="333.00">
        <route edges="E0 E10 -E4"/>
    </vehicle>
    <vehicle id="112" type="krauss_0.75" depart="336.00">
        <route edges="E0 E10 -E4"/>
    </vehicle>
    <vehicle id="113" type="cacc" depart="339.00">
        <route edges="E0 E10 -E4"/>
    </vehicle>
    <vehicle id="114" type="krauss_0.5" depart="342.00">
        <route edges="E4 E5 -E9 E2 E8 -E6"/>
    </vehicle>
    <vehicle id="115" type="krauss_0.75" depart="345.00">
        <route edges="E4 E5 -E9 E2 E8 -E6"/>
    </vehicle>
    <vehicle id="116" type="cacc" depart="348.00">
        <route edges="E4 E5 -E9 E2 E8 -E6"/>
    </vehicle>
    <vehicle id="117" type="krauss_0.5" depart="351.00">
        <route edges="-E6 -E5 -E4"/>
    </vehicle>
    <vehicle id="118" type="krauss_0.75" depart="354.00">
        <route edges="-E6 -E5 -E4"/>
    </vehicle>
    <vehicle id="119" type="cacc" depart="357.00">
        <route edges="-E6 -E5 -E4"/>
    </vehicle>
    <vehicle id="120" type="krauss_0.5" depart="360.00">
        <route edges="E0 E10 -E4"/>
    </vehicle>
    <vehicle id="121" type="krauss_0.75" depart="363.00">
        <route edges="E0 E10 -E4"/>
    </vehicle>
    <vehicle id="122" type="cacc" depart="366.00">
        <route edges="E0 E10 -E4"/>
    </vehicle>
    <vehicle id="123" type="krauss_0.5" depart="369.00">
        <route edges="E0 E1 E9 E6 E7"/>
    </vehicle>
    <vehicle id="124" type="krauss_0.75" depart="372.00">
        <route edges="E0 E1 E9 E6 E7"/>
    </vehicle>
    <vehicle id="125" type="cacc" depart="375.00">
        <route edges="E0 E1 E9 E6 E7"/>
    </vehicle>
    <vehicle id="126" type="krauss_0.5" depart="378.00">
        <route edges="-E7 -E6 -E5 -E10"/>
    </vehicle>
    <vehicle id="127" type="krauss_0.75" depart="381.00">
        <route edges="-E7 -E6 -E5 -E10"/>
    </vehicle>
    <vehicle id="128" type="cacc" depart="384.00">
        <route edges="-E7 -E6 -E5 -E10"/>
    </vehicle>
    <vehicle id="129" type="krauss_0.5" depart="387.00">
        <route edges="E9 -E5 -E10 E1"/>
    </vehicle>
    <vehicle id="130" type="krauss_0.75" depart="390.00">
        <route edges="E9 -E5 -E10 E1"/>
    </vehicle>
    <vehicle id="131" type="cacc" depart="393.00">
        <route edges="E9 -E5 -E10 E1"/>
    </vehicle>
    <vehicle id="132" type="krauss_0.5" depart="396.00">
        <route edges="-E3 -E2 -E1 -E0"/>
    </vehicle>
    <vehicle id="133" type="krauss_0.75" depart="399.00">
        <route edges="-E3 -E2 -E1 -E0"/>
    </vehicle>
    <vehicle id="134" type="cacc" depart="402.00">
        <route edges="-E3 -E2 -E1 -E0"/>
    </vehicle>
    <vehicle id="135" type="krauss_0.5" depart="405.00">
        <route edges="-E3 E8 -E6 -E9 E2 E3"/>
    </vehicle>
    <vehicle id="136" type="krauss_0.75" depart="408.00">
        <route edges="-E3 E8 -E6 -E9 E2 E3"/>
    </vehicle>
    <vehicle id="137" type="cacc" depart="411.00">
        <route edges="-E3 E8 -E6 -E9 E2 E3"/>
    </vehicle>
    <vehicle id="138" type="krauss_0.5" depart="414.00">
        <route edges="E4 -E10 E1 E9 -E5 -E4"/>
    </vehicle>
    <vehicle id="139" type="krauss_0.75" depart="417.00">
        <route edges="E4 -E10 E1 E9 -E5 -E4"/>
    </vehicle>
    <vehicle id="140" type="cacc" depart="420.00">
        <route edges="E4 -E10 E1 E9 -E5 -E4"/>
    </vehicle>
    <vehicle id="141" type="krauss_0.5" depart="423.00">
        <route edges="-E3 -E2 -E1 E10 -E4"/>
    </vehicle>
    <vehicle id="142" type="krauss_0.75" depart="426.00">
        <route edges="-E3 -E2 -E1 E10 -E4"/>
    </vehicle>
    <vehicle id="143" type="cacc" depart="429.00">
        <route edges="-E3 -E2 -E1 E10 -E4"/>
    </vehicle>
    <vehicle id="144" type="krauss_0.5" depart="432.00">
        <route edges="E9 E6 -E8 -E2 -E1 E10"/>
    </vehicle>
    <vehicle id="145" type="krauss_0.75" depart="435.00">
        <route edges="E9 E6 -E8 -E2 -E1 E10"/>
    </vehicle>
    <vehicle id="146" type="cacc" depart="438.00">
        <route edges="E9 E6 -E8 -E2 -E1 E10"/>
    </vehicle>
    <vehicle id="147" type="krauss_0.5" depart="441.00">
        <route edges="E8 E7"/>
    </vehicle>
    <vehicle id="148" type="krauss_0.75" depart="444.00">
        <route edges="E8 E7"/>
    </vehicle>
    <vehicle id="149" type="cacc" depart="447.00">
        <route edges="E8 E7"/>
    </vehicle>
    <vehicle id="150" type="krauss_0.5" depart="450.00">
        <route edges="-E1 E10 E5 E6 -E8 E3"/>
    </vehicle>
    <vehicle id="151" type="krauss_0.75" depart="453.00">
        <route edges="-E1 E10 E5 E6 -E8 E3"/>
    </vehicle>
    <vehicle id="152" type="cacc" depart="456.00">
        <route edges="-E1 E10 E5 E6 -E8 E3"/>
    </vehicle>
    <vehicle id="153" type="krauss_0.5" depart="459.00">
        <route edges="E0 E10"/>
    </vehicle>
    <vehicle id="154" type="krauss_0.75" depart="462.00">
        <route edges="E0 E10"/>
    </vehicle>
    <vehicle id="155" type="cacc" depart="465.00">
        <route edges="E0 E10"/>
    </vehicle>
    <vehicle id="156" type="krauss_0.5" depart="468.00">
        <route edges="-E6 -E9 E2 E3"/>
    </vehicle>
    <vehicle id="157" type="krauss_0.75" depart="471.00">
        <route edges="-E6 -E9 E2 E3"/>
    </vehicle>
    <vehicle id="158" type="cacc" depart="474.00">
        <route edges="-E6 -E9 E2 E3"/>
    </vehicle>
    <vehicle id="159" type="krauss_0.5" depart="477.00">
        <route edges="-E3 -E2 E9 -E5"/>
    </vehicle>
    <vehicle id="160" type="krauss_0.75" depart="480.00">
        <route edges="-E3 -E2 E9 -E5"/>
    </vehicle>
    <vehicle id="161" type="cacc" depart="483.00">
        <route edges="-E3 -E2 E9 -E5"/>
    </vehicle>
    <vehicle id="162" type="krauss_0.5" depart="486.00">
        <route edges="-E7 -E6 -E9 E2 E8 E7"/>
    </vehicle>
    <vehicle id="163" type="krauss_0.75" depart="489.00">
        <route edges="-E7 -E6 -E9 E2 E8 E7"/>
    </vehicle>
    <vehicle id="164" type="cacc" depart="492.00">
        <route edges="-E7 -E6 -E9 E2 E8 E7"/>
    </vehicle>
    <vehicle id="165" type="krauss_0.5" depart="495.00">
        <route edges="E4 -E10 E1 E9 -E5 -E4"/>
    </vehicle>
    <vehicle id="166" type="krauss_0.75" depart="498.00">
        <route edges="E4 -E10 E1 E9 -E5 -E4"/>
    </vehicle>
    <vehicle id="167" type="cacc" depart="501.00">
        <route edges="E4 -E10 E1 E9 -E5 -E4"/>
    </vehicle>
    <vehicle id="168" type="krauss_0.5" depart="504.00">
        <route edges="E0 E1 E9 -E5 -E10 -E0"/>
    </vehicle>
    <vehicle id="169" type="krauss_0.75" depart="507.00">
        <route edges="E0 E1 E9 -E5 -E10 -E0"/>
    </vehicle>
    <vehicle id="170" type="cacc" depart="510.00">
        <route edges="E0 E1 E9 -E5 -E10 -E0"/>
    </vehicle>
    <vehicle id="171" type="krauss_0.5" depart="513.00">
        <route edges="E4 E5 E6 E7"/>
    </vehicle>
    <vehicle id="172" type="krauss_0.75" depart="516.00">
        <route edges="E4 E5 E6 E7"/>
    </vehicle>
    <vehicle id="173" type="cacc" depart="519.00">
        <route edges="E4 E5 E6 E7"/>
    </vehicle>
    <vehicle id="174" type="krauss_0.5" depart="522.00">
        <route edges="-E7 -E8 E3"/>
    </vehicle>
    <vehicle id="175" type="krauss_0.75" depart="525.00">
        <route edges="-E7 -E8 E3"/>
    </vehicle>
    <vehicle id="176" type="cacc" depart="528.00">
        <route edges="-E7 -E8 E3"/>
    </vehicle>
    <vehicle id="177" type="krauss_0.5" depart="531.00">
        <route edges="E0 E1 E9 -E5 -E10 -E0"/>
    </vehicle>
    <vehicle id="178" type="krauss_0.75" depart="534.00">
        <route edges="E0 E1 E9 -E5 -E10 -E0"/>
    </vehicle>
    <vehicle id="179" type="cacc" depart="537.00">
        <route edges="E0 E1 E9 -E5 -E10 -E0"/>
    </vehicle>
    <vehicle id="180" type="krauss_0.5" depart="540.00">
        <route edges="E4 E5 -E9 E2"/>
    </vehicle>
    <vehicle id="181" type="krauss_0.75" depart="543.00">
        <route edges="E4 E5 -E9 E2"/>
    </vehicle>
    <vehicle id="182" type="cacc" depart="546.00">
        <route edges="E4 E5 -E9 E2"/>
    </vehicle>
    <vehicle id="183" type="krauss_0.5" depart="549.00">
        <route edges="E4 E5 -E9 -E1 E10"/>
    </vehicle>
    <vehicle id="184" type="krauss_0.75" depart="552.00">
        <route edges="E4 E5 -E9 -E1 E10"/>
    </vehicle>
    <vehicle id="185" type="cacc" depart="555.00">
        <route edges="E4 E5 -E9 -E1 E10"/>
    </vehicle>
    <vehicle id="186" type="krauss_0.5" depart="558.00">
        <route edges="-E1 E10 -E4"/>
    </vehicle>
    <vehicle id="187" type="krauss_0.75" depart="561.00">
        <route edges="-E1 E10 -E4"/>
    </vehicle>
    <vehicle id="188" type="cacc" depart="564.00">
        <route edges="-E1 E10 -E4"/>
    </vehicle>
    <vehicle id="189" type="krauss_0.5" depart="567.00">
        <route edges="-E10 E1 E2 E8 E7"/>
    </vehicle>
    <vehicle id="190" type="krauss_0.75" depart="570.00">
        <route edges="-E10 E1 E2 E8 E7"/>
    </vehicle>
    <vehicle id="191" type="cacc" depart="573.00">
        <route edges="-E10 E1 E2 E8 E7"/>
    </vehicle>
    <vehicle id="192" type="krauss_0.5" depart="576.00">
        <route edges="E4 E5 E6 E7"/>
    </vehicle>
    <vehicle id="193" type="krauss_0.75" depart="579.00">
        <route edges="E4 E5 E6 E7"/>
    </vehicle>
    <vehicle id="194" type="cacc" depart="582.00">
        <route edges="E4 E5 E6 E7"/>
    </vehicle>
    <vehicle id="195" type="krauss_0.5" depart="585.00">
        <route edges="-E7 -E6 -E9 -E1 -E0"/>
    </vehicle>
    <vehicle id="196" type="krauss_0.75" depart="588.00">
        <route edges="-E7 -E6 -E9 -E1 -E0"/>
    </vehicle>
    <vehicle id="197" type="cacc" depart="591.00">
        <route edges="-E7 -E6 -E9 -E1 -E0"/>
    </vehicle>
    <vehicle id="198" type="krauss_0.5" depart="594.00">
        <route edges="E4 E5 E6 E7"/>
    </vehicle>
    <vehicle id="199" type="krauss_0.75" depart="597.00">
        <route edges="E4 E5 E6 E7"/>
    </vehicle>
    <vehicle id="200" type="cacc" depart="600.00">
        <route edges="E4 E5 E6 E7"/>
    </vehicle>
    <vehicle id="201" type="krauss_0.5" depart="603.00">
        <route edges="-E3 E8 -E6 -E9"/>
    </vehicle>
    <vehicle id="202" type="krauss_0.75" depart="606.00">
        <route edges="-E3 E8 -E6 -E9"/>
    </vehicle>
    <vehicle id="203" type="cacc" depart="609.00">
        <route edges="-E3 E8 -E6 -E9"/>
    </vehicle>
    <vehicle id="204" type="krauss_0.5" depart="612.00">
        <route edges="-E3 -E2 E9 E6"/>
    </vehicle>
    <vehicle id="205" type="krauss_0.75" depart="615.00">
        <route edges="-E3 -E2 E9 E6"/>
    </vehicle>
    <vehicle id="206" type="cacc" depart="618.00">
        <route edges="-E3 -E2 E9 E6"/>
    </vehicle>
    <vehicle id="207" type="krauss_0.5" depart="621.00">
        <route edges="E4 -E10 -E0"/>
    </vehicle>
    <vehicle id="208" type="krauss_0.75" depart="624.00">
        <route edges="E4 -E10 -E0"/>
    </vehicle>
    <vehicle id="209" type="cacc" depart="627.00">
        <route edges="E4 -E10 -E0"/>
    </vehicle>
    <vehicle id="210" type="krauss_0.5" depart="630.00">
        <route edges="-E8 -E2 E9 -E5 -E10 E1 E2"/>
    </vehicle>
    <vehicle id="211" type="krauss_0.75" depart="633.00">
        <route edges="-E8 -E2 E9 -E5 -E10 E1 E2"/>
    </vehicle>
    <vehicle id="212" type="cacc" depart="636.00">
        <route edges="-E8 -E2 E9 -E5 -E10 E1 E2"/>
    </vehicle>
    <vehicle id="213" type="krauss_0.5" depart="639.00">
        <route edges="-E6 -E9 E2 E8 E7"/>
    </vehicle>
    <vehicle id="214" type="krauss_0.75" depart="642.00">
        <route edges="-E6 -E9 E2 E8 E7"/>
    </vehicle>
    <vehicle id="215" type="cacc" depart="645.00">
        <route edges="-E6 -E9 E2 E8 E7"/>
    </vehicle>
    <vehicle id="216" type="krauss_0.5" depart="648.00">
        <route edges="-E7 -E6 -E5 -E10"/>
    </vehicle>
    <vehicle id="217" type="krauss_0.75" depart="651.00">
        <route edges="-E7 -E6 -E5 -E10"/>
    </vehicle>
    <vehicle id="218" type="cacc" depart="654.00">
        <route edges="-E7 -E6 -E5 -E10"/>
    </vehicle>
    <vehicle id="219" type="krauss_0.5" depart="657.00">
        <route edges="E0 E1 E2 E3"/>
    </vehicle>
    <vehicle id="220" type="krauss_0.75" depart="660.00">
        <route edges="E0 E1 E2 E3"/>
    </vehicle>
    <vehicle id="221" type="cacc" depart="663.00">
        <route edges="E0 E1 E2 E3"/>
    </vehicle>
    <vehicle id="222" type="krauss_0.5" depart="666.00">
        <route edges="-E3 -E2 -E1 E10 -E4"/>
    </vehicle>
    <vehicle id="223" type="krauss_0.75" depart="669.00">
        <route edges="-E3 -E2 -E1 E10 -E4"/>
    </vehicle>
    <vehicle id="224" type="cacc" depart="672.00">
        <route edges="-E3 -E2 -E1 E10 -E4"/>
    </vehicle>
    <vehicle id="225" type="krauss_0.5" depart="675.00">
        <route edges="E9 E6 -E8 E3"/>
    </vehicle>
    <vehicle id="226" type="krauss_0.75" depart="678.00">
        <route edges="E9 E6 -E8 E3"/>
    </vehicle>
    <vehicle id="227" type="cacc" depart="681.00">
        <route edges="E9 E6 -E8 E3"/>
    </vehicle>
    <vehicle id="228" type="krauss_0.5" depart="684.00">
        <route edges="-E7 -E6 -E5 -E10 E1"/>
    </vehicle>
    <vehicle id="229" type="krauss_0.75" depart="687.00">
        <route edges="-E7 -E6 -E5 -E10 E1"/>
    </vehicle>
    <vehicle id="230" type="cacc" depart="690.00">
        <route edges="-E7 -E6 -E5 -E10 E1"/>
    </vehicle>
    <vehicle id="231" type="krauss_0.5" depart="693.00">
        <route edges="-E3 -E2"/>
    </vehicle>
    <vehicle id="232" type="krauss_0.75" depart="696.00">
        <route edges="-E3 -E2"/>
    </vehicle>
    <vehicle id="233" type="cacc" depart="699.00">
        <route edges="-E3 -E2"/>
    </vehicle>
    <vehicle id="234" type="krauss_0.5" depart="702.00">
        <route edges="-E7 -E8 E3"/>
    </vehicle>
    <vehicle id="235" type="krauss_0.75" depart="705.00">
        <route edges="-E7 -E8 E3"/>
    </vehicle>
    <vehicle id="236" type="cacc" depart="708.00">
        <route edges="-E7 -E8 E3"/>
    </vehicle>
    <vehicle id="237" type="krauss_0.5" depart="711.00">
        <route edges="-E3 -E2 E9 -E5 -E10"/>
    </vehicle>
    <vehicle id="238" type="krauss_0.75" depart="714.00">
        <route edges="-E3 -E2 E9 -E5 -E10"/>
    </vehicle>
    <vehicle id="239" type="cacc" depart="717.00">
        <route edges="-E3 -E2 E9 -E5 -E10"/>
    </vehicle>
    <vehicle id="240" type="krauss_0.5" depart="720.00">
        <route edges="-E3 E8 -E6 -E9 E2 E3"/>
    </vehicle>
    <vehicle id="241" type="krauss_0.75" depart="723.00">
        <route edges="-E3 E8 -E6 -E9 E2 E3"/>
    </vehicle>
    <vehicle id="242" type="cacc" depart="726.00">
        <route edges="-E3 E8 -E6 -E9 E2 E3"/>
    </vehicle>
    <vehicle id="243" type="krauss_0.5" depart="729.00">
        <route edges="-E3 E8 E7"/>
    </vehicle>
    <vehicle id="244" type="krauss_0.75" depart="732.00">
        <route edges="-E3 E8 E7"/>
    </vehicle>
    <vehicle id="245" type="cacc" depart="735.00">
        <route edges="-E3 E8 E7"/>
    </vehicle>
    <vehicle id="246" type="krauss_0.5" depart="738.00">
        <route edges="E4 -E10 -E0"/>
    </vehicle>
    <vehicle id="247" type="krauss_0.75" depart="741.00">
        <route edges="E4 -E10 -E0"/>
    </vehicle>
    <vehicle id="248" type="cacc" depart="744.00">
        <route edges="E4 -E10 -E0"/>
    </vehicle>
    <vehicle id="249" type="krauss_0.5" depart="747.00">
        <route edges="-E3 E8 -E6 -E9 E2 E3"/>
    </vehicle>
    <vehicle id="250" type="krauss_0.75" depart="750.00">
        <route edges="-E3 E8 -E6 -E9 E2 E3"/>
    </vehicle>
    <vehicle id="251" type="cacc" depart="753.00">
        <route edges="-E3 E8 -E6 -E9 E2 E3"/>
    </vehicle>
    <vehicle id="252" type="krauss_0.5" depart="756.00">
        <route edges="-E3 -E2 -E1 -E0"/>
    </vehicle>
    <vehicle id="253" type="krauss_0.75" depart="759.00">
        <route edges="-E3 -E2 -E1 -E0"/>
    </vehicle>
    <vehicle id="254" type="cacc" depart="762.00">
        <route edges="-E3 -E2 -E1 -E0"/>
    </vehicle>
    <vehicle id="255" type="krauss_0.5" depart="765.00">
        <route edges="E5 E6 -E8 E3"/>
    </vehicle>
    <vehicle id="256" type="krauss_0.75" depart="768.00">
        <route edges="E5 E6 -E8 E3"/>
    </vehicle>
    <vehicle id="257" type="cacc" depart="771.00">
        <route edges="E5 E6 -E8 E3"/>
    </vehicle>
    <vehicle id="258" type="krauss_0.5" depart="774.00">
        <route edges="-E8 -E2 E9 E6 E7"/>
    </vehicle>
    <vehicle id="259" type="krauss_0.75" depart="777.00">
        <route edges="-E8 -E2 E9 E6 E7"/>
    </vehicle>
    <vehicle id="260" type="cacc" depart="780.00">