<?xml version="1.0" encoding="UTF-8"?>

<!-- generated on 2024-11-03 17:31:59 by Eclipse SUMO netedit Version v1_21_0+0546-c8b591674a3
-->

<additional xmlns:xsi="http://www.w3.org/2001/XMLSchema-instance" xsi:noNamespaceSchemaLocation="http://sumo.dlr.de/xsd/additional_file.xsd">
</additional>
