<?xml version="1.0" encoding="UTF-8"?>

<!-- generated on 2024-11-03 17:31:59 by Eclipse SUMO netedit Version v1_21_0+0546-c8b591674a3
-->

<routes xmlns:xsi="http://www.w3.org/2001/XMLSchema-instance" xsi:noNamespaceSchemaLocation="http://sumo.dlr.de/xsd/routes_file.xsd">
    <!-- Routes -->
    <route id="r_0" edges="-E7 E8 E3"/>
    <route id="r_1" edges="-E7 E8 -E2 -E1 -E0"/>
    <route id="r_10" edges="E0 -E10 -E4"/>
    <route id="r_11" edges="E0 E1 -E9 E6 E7"/>
    <route id="r_12" edges="E0 -E10 E5 E6 E7"/>
    <route id="r_13" edges="E0 E1 E2 -E8 E7"/>
    <route id="r_14" edges="E0 E1 E2 E3"/>
    <route id="r_15" edges="-E3 -E8 E7"/>
    <route id="r_16" edges="-E3 -E2 -E1 -E0"/>
    <route id="r_17" edges="-E3 -E8 -E6 -E5 -E4"/>
    <route id="r_18" edges="-E3 -E2 -E9 -E5 -E4"/>
    <route id="r_19" edges="-E3 -E2 -E1 -E10 -E4"/>
    <route id="r_2" edges="-E7 -E6 E9 -E1 -E0"/>
    <route id="r_3" edges="-E7 -E6 -E5 E10 -E0"/>
    <route id="r_4" edges="-E7 -E6 -E5 -E4"/>
    <route id="r_5" edges="E4 E5 E6 E7"/>
    <route id="r_6" edges="E4 E5 E6 E8 E3"/>
    <route id="r_7" edges="E4 E5 E9 E2 E3"/>
    <route id="r_8" edges="E4 E10 E1 E2 E3"/>
    <route id="r_9" edges="E4 E10 -E0"/>
    <!-- Vehicles, persons and containers (sorted by depart) -->
    <vehicle id="v_0" depart="0.00" route="r_19"/>
    <vehicle id="v_1" depart="0.00" color="255,0,24" route="r_19"/>
    <vehicle id="v_2" depart="0.00" color="255,0,24" route="r_19"/>
    <vehicle id="v_3" depart="0.00" color="255,0,24" route="r_19"/>
    <vehicle id="v_4" depart="0.00" color="255,0,24" route="r_9"/>
    <vehicle id="v_5" depart="0.00" color="0,74,255" route="r_4"/>
    <vehicle id="v_6" depart="0.00" color="77,255,0" route="r_14"/>
</routes>
