<configuration>
    <input>
        <net-file value="junction.net.xml"/>
        <route-files value="junction.rou.xml"/>
    </input>
</configuration>
