<?xml version="1.0" encoding="UTF-8"?>

<!-- generated on 2024-11-09 15:07:03 by Eclipse SUMO netedit Version v1_21_0+0546-c8b591674a3
<neteditConfiguration xmlns:xsi="http://www.w3.org/2001/XMLSchema-instance" xsi:noNamespaceSchemaLocation="http://sumo.dlr.de/xsd/neteditConfiguration.xsd">

    <input>
        <sumo-net-file value="/home/haron/artery/scenarios/junction/junction.net.xml"/>
    </input>

    <output>
        <output-file value="/home/haron/artery/scenarios/junction/junction.net.xml"/>
    </output>

    <processing>
        <offset.disable-normalization value="true"/>
    </processing>

    <junctions>
        <no-turnarounds value="true"/>
    </junctions>

    <netedit>
        <new-network value="false"/>
    </netedit>

</neteditConfiguration>
-->

<net version="1.20" junctionCornerDetail="5" limitTurnSpeed="5.50" xmlns:xsi="http://www.w3.org/2001/XMLSchema-instance" xsi:noNamespaceSchemaLocation="http://sumo.dlr.de/xsd/net_file.xsd">

    <location netOffset="0.00,0.00" convBoundary="-100.00,-200.00,300.00,100.00" origBoundary="10000000000.00,10000000000.00,-10000000000.00,-10000000000.00" projParameter="!"/>

    <edge id=":J0_0" function="internal">
        <lane id=":J0_0_0" index="0" speed="6.51" length="9.03" shape="-1.60,7.20 -1.95,4.75 -3.00,3.00 -4.75,1.95 -7.20,1.60"/>
    </edge>
    <edge id=":J0_1" function="internal">
        <lane id=":J0_1_0" index="0" speed="13.89" length="14.40" shape="-1.60,7.20 -1.60,-7.20"/>
    </edge>
    <edge id=":J0_2" function="internal">
        <lane id=":J0_2_0" index="0" speed="8.00" length="4.07" shape="-1.60,7.20 -1.05,3.35 -0.96,3.20"/>
    </edge>
    <edge id=":J0_12" function="internal">
        <lane id=":J0_12_0" index="0" speed="8.00" length="10.13" shape="-0.96,3.20 0.60,0.60 3.35,-1.05 7.20,-1.60"/>
    </edge>
    <edge id=":J0_3" function="internal">
        <lane id=":J0_3_0" index="0" speed="6.51" length="9.03" shape="7.20,1.60 4.75,1.95 3.00,3.00 1.95,4.75 1.60,7.20"/>
    </edge>
    <edge id=":J0_4" function="internal">
        <lane id=":J0_4_0" index="0" speed="13.89" length="14.40" shape="7.20,1.60 -7.20,1.60"/>
    </edge>
    <edge id=":J0_5" function="internal">
        <lane id=":J0_5_0" index="0" speed="8.00" length="14.19" shape="7.20,1.60 3.35,1.05 0.60,-0.60 -1.05,-3.35 -1.60,-7.20"/>
    </edge>
    <edge id=":J0_6" function="internal">
        <lane id=":J0_6_0" index="0" speed="6.51" length="9.03" shape="1.60,-7.20 1.95,-4.75 3.00,-3.00 4.75,-1.95 7.20,-1.60"/>
    </edge>
    <edge id=":J0_7" function="internal">
        <lane id=":J0_7_0" index="0" speed="13.89" length="14.40" shape="1.60,-7.20 1.60,7.20"/>
    </edge>
    <edge id=":J0_8" function="internal">
        <lane id=":J0_8_0" index="0" speed="8.00" length="4.07" shape="1.60,-7.20 1.05,-3.35 0.96,-3.20"/>
    </edge>
    <edge id=":J0_13" function="internal">
        <lane id=":J0_13_0" index="0" speed="8.00" length="10.13" shape="0.96,-3.20 -0.60,-0.60 -3.35,1.05 -7.20,1.60"/>
    </edge>
    <edge id=":J0_9" function="internal">
        <lane id=":J0_9_0" index="0" speed="6.51" length="9.03" shape="-7.20,-1.60 -4.75,-1.95 -3.00,-3.00 -1.95,-4.75 -1.60,-7.20"/>
    </edge>
    <edge id=":J0_10" function="internal">
        <lane id=":J0_10_0" index="0" speed="13.89" length="14.40" shape="-7.20,-1.60 7.20,-1.60"/>
    </edge>
    <edge id=":J0_11" function="internal">
        <lane id=":J0_11_0" index="0" speed="8.00" length="14.19" shape="-7.20,-1.60 -3.35,-1.05 -0.60,0.60 1.05,3.35 1.60,7.20"/>
    </edge>
    <edge id=":J1_0" function="internal">
        <lane id=":J1_0_0" index="0" speed="6.51" length="9.03" shape="98.40,7.20 98.05,4.75 97.00,3.00 95.25,1.95 92.80,1.60"/>
    </edge>
    <edge id=":J1_1" function="internal">
        <lane id=":J1_1_0" index="0" speed="13.89" length="14.40" shape="98.40,7.20 98.40,-7.20"/>
    </edge>
    <edge id=":J1_2" function="internal">
        <lane id=":J1_2_0" index="0" speed="8.00" length="4.07" shape="98.40,7.20 98.95,3.35 99.04,3.20"/>
    </edge>
    <edge id=":J1_12" function="internal">
        <lane id=":J1_12_0" index="0" speed="8.00" length="10.13" shape="99.04,3.20 100.60,0.60 103.35,-1.05 107.20,-1.60"/>
    </edge>
    <edge id=":J1_3" function="internal">
        <lane id=":J1_3_0" index="0" speed="6.51" length="9.03" shape="107.20,1.60 104.75,1.95 103.00,3.00 101.95,4.75 101.60,7.20"/>
    </edge>
    <edge id=":J1_4" function="internal">
        <lane id=":J1_4_0" index="0" speed="13.89" length="14.40" shape="107.20,1.60 92.80,1.60"/>
    </edge>
    <edge id=":J1_5" function="internal">
        <lane id=":J1_5_0" index="0" speed="8.00" length="4.07" shape="107.20,1.60 103.35,1.05 103.20,0.96"/>
    </edge>
    <edge id=":J1_13" function="internal">
        <lane id=":J1_13_0" index="0" speed="8.00" length="10.13" shape="103.20,0.96 100.60,-0.60 98.95,-3.35 98.40,-7.20"/>
    </edge>
    <edge id=":J1_6" function="internal">
        <lane id=":J1_6_0" index="0" speed="6.51" length="9.03" shape="101.60,-7.20 101.95,-4.75 103.00,-3.00 104.75,-1.95 107.20,-1.60"/>
    </edge>
    <edge id=":J1_7" function="internal">
        <lane id=":J1_7_0" index="0" speed="13.89" length="14.40" shape="101.60,-7.20 101.60,7.20"/>
    </edge>
    <edge id=":J1_8" function="internal">
        <lane id=":J1_8_0" index="0" speed="8.00" length="4.07" shape="101.60,-7.20 101.05,-3.35 100.96,-3.20"/>
    </edge>
    <edge id=":J1_14" function="internal">
        <lane id=":J1_14_0" index="0" speed="8.00" length="10.13" shape="100.96,-3.20 99.40,-0.60 96.65,1.05 92.80,1.60"/>
    </edge>
    <edge id=":J1_9" function="internal">
        <lane id=":J1_9_0" index="0" speed="6.51" length="9.03" shape="92.80,-1.60 95.25,-1.95 97.00,-3.00 98.05,-4.75 98.40,-7.20"/>
    </edge>
    <edge id=":J1_10" function="internal">
        <lane id=":J1_10_0" index="0" speed="13.89" length="14.40" shape="92.80,-1.60 107.20,-1.60"/>
    </edge>
    <edge id=":J1_11" function="internal">
        <lane id=":J1_11_0" index="0" speed="8.00" length="4.07" shape="92.80,-1.60 96.65,-1.05 96.80,-0.96"/>
    </edge>
    <edge id=":J1_15" function="internal">
        <lane id=":J1_15_0" index="0" speed="8.00" length="10.13" shape="96.80,-0.96 99.40,0.60 101.05,3.35 101.60,7.20"/>
    </edge>
    <edge id=":J11_0" function="internal">
        <lane id=":J11_0_0" index="0" speed="6.51" length="9.03" shape="-1.60,-92.80 -1.95,-95.25 -3.00,-97.00 -4.75,-98.05 -7.20,-98.40"/>
    </edge>
    <edge id=":J11_1" function="internal">
        <lane id=":J11_1_0" index="0" speed="13.89" length="14.40" shape="-1.60,-92.80 -1.60,-107.20"/>
    </edge>
    <edge id=":J11_2" function="internal">
        <lane id=":J11_2_0" index="0" speed="8.00" length="4.07" shape="-1.60,-92.80 -1.05,-96.65 -0.96,-96.80"/>
    </edge>
    <edge id=":J11_12" function="internal">
        <lane id=":J11_12_0" index="0" speed="8.00" length="10.13" shape="-0.96,-96.80 0.60,-99.40 3.35,-101.05 7.20,-101.60"/>
    </edge>
    <edge id=":J11_3" function="internal">
        <lane id=":J11_3_0" index="0" speed="6.51" length="9.03" shape="7.20,-98.40 4.75,-98.05 3.00,-97.00 1.95,-95.25 1.60,-92.80"/>
    </edge>
    <edge id=":J11_4" function="internal">
        <lane id=":J11_4_0" index="0" speed="13.89" length="14.40" shape="7.20,-98.40 -7.20,-98.40"/>
    </edge>
    <edge id=":J11_5" function="internal">
        <lane id=":J11_5_0" index="0" speed="8.00" length="14.19" shape="7.20,-98.40 3.35,-98.95 0.60,-100.60 -1.05,-103.35 -1.60,-107.20"/>
    </edge>
    <edge id=":J11_6" function="internal">
        <lane id=":J11_6_0" index="0" speed="6.51" length="9.03" shape="1.60,-107.20 1.95,-104.75 3.00,-103.00 4.75,-101.95 7.20,-101.60"/>
    </edge>
    <edge id=":J11_7" function="internal">
        <lane id=":J11_7_0" index="0" speed="13.89" length="14.40" shape="1.60,-107.20 1.60,-92.80"/>
    </edge>
    <edge id=":J11_8" function="internal">
        <lane id=":J11_8_0" index="0" speed="8.00" length="4.07" shape="1.60,-107.20 1.05,-103.35 0.96,-103.20"/>
    </edge>
    <edge id=":J11_13" function="internal">
        <lane id=":J11_13_0" index="0" speed="8.00" length="10.13" shape="0.96,-103.20 -0.60,-100.60 -3.35,-98.95 -7.20,-98.40"/>
    </edge>
    <edge id=":J11_9" function="internal">
        <lane id=":J11_9_0" index="0" speed="6.51" length="9.03" shape="-7.20,-101.60 -4.75,-101.95 -3.00,-103.00 -1.95,-104.75 -1.60,-107.20"/>
    </edge>
    <edge id=":J11_10" function="internal">
        <lane id=":J11_10_0" index="0" speed="13.89" length="14.40" shape="-7.20,-101.60 7.20,-101.60"/>
    </edge>
    <edge id=":J11_11" function="internal">
        <lane id=":J11_11_0" index="0" speed="8.00" length="14.19" shape="-7.20,-101.60 -3.35,-101.05 -0.60,-99.40 1.05,-96.65 1.60,-92.80"/>
    </edge>
    <edge id=":J12_0" function="internal">
        <lane id=":J12_0_0" index="0" speed="6.51" length="9.03" shape="98.40,-92.80 98.05,-95.25 97.00,-97.00 95.25,-98.05 92.80,-98.40"/>
    </edge>
    <edge id=":J12_1" function="internal">
        <lane id=":J12_1_0" index="0" speed="13.89" length="14.40" shape="98.40,-92.80 98.40,-107.20"/>
    </edge>
    <edge id=":J12_2" function="internal">
        <lane id=":J12_2_0" index="0" speed="8.00" length="4.07" shape="98.40,-92.80 98.95,-96.65 99.04,-96.80"/>
    </edge>
    <edge id=":J12_12" function="internal">
        <lane id=":J12_12_0" index="0" speed="8.00" length="10.13" shape="99.04,-96.80 100.60,-99.40 103.35,-101.05 107.20,-101.60"/>
    </edge>
    <edge id=":J12_3" function="internal">
        <lane id=":J12_3_0" index="0" speed="6.51" length="9.03" shape="107.20,-98.40 104.75,-98.05 103.00,-97.00 101.95,-95.25 101.60,-92.80"/>
    </edge>
    <edge id=":J12_4" function="internal">
        <lane id=":J12_4_0" index="0" speed="13.89" length="14.40" shape="107.20,-98.40 92.80,-98.40"/>
    </edge>
    <edge id=":J12_5" function="internal">
        <lane id=":J12_5_0" index="0" speed="8.00" length="4.07" shape="107.20,-98.40 103.35,-98.95 103.20,-99.04"/>
    </edge>
    <edge id=":J12_13" function="internal">
        <lane id=":J12_13_0" index="0" speed="8.00" length="10.13" shape="103.20,-99.04 100.60,-100.60 98.95,-103.35 98.40,-107.20"/>
    </edge>
    <edge id=":J12_6" function="internal">
        <lane id=":J12_6_0" index="0" speed="6.51" length="9.03" shape="101.60,-107.20 101.95,-104.75 103.00,-103.00 104.75,-101.95 107.20,-101.60"/>
    </edge>
    <edge id=":J12_7" function="internal">
        <lane id=":J12_7_0" index="0" speed="13.89" length="14.40" shape="101.60,-107.20 101.60,-92.80"/>
    </edge>
    <edge id=":J12_8" function="internal">
        <lane id=":J12_8_0" index="0" speed="8.00" length="4.07" shape="101.60,-107.20 101.05,-103.35 100.96,-103.20"/>
    </edge>
    <edge id=":J12_14" function="internal">
        <lane id=":J12_14_0" index="0" speed="8.00" length="10.13" shape="100.96,-103.20 99.40,-100.60 96.65,-98.95 92.80,-98.40"/>
    </edge>
    <edge id=":J12_9" function="internal">
        <lane id=":J12_9_0" index="0" speed="6.51" length="9.03" shape="92.80,-101.60 95.25,-101.95 97.00,-103.00 98.05,-104.75 98.40,-107.20"/>
    </edge>
    <edge id=":J12_10" function="internal">
        <lane id=":J12_10_0" index="0" speed="13.89" length="14.40" shape="92.80,-101.60 107.20,-101.60"/>
    </edge>
    <edge id=":J12_11" function="internal">
        <lane id=":J12_11_0" index="0" speed="8.00" length="4.07" shape="92.80,-101.60 96.65,-101.05 96.80,-100.96"/>
    </edge>
    <edge id=":J12_15" function="internal">
        <lane id=":J12_15_0" index="0" speed="8.00" length="10.13" shape="96.80,-100.96 99.40,-99.40 101.05,-96.65 101.60,-92.80"/>
    </edge>
    <edge id=":J13_0" function="internal">
        <lane id=":J13_0_0" index="0" speed="6.51" length="9.03" shape="198.40,-92.80 198.05,-95.25 197.00,-97.00 195.25,-98.05 192.80,-98.40"/>
    </edge>
    <edge id=":J13_1" function="internal">
        <lane id=":J13_1_0" index="0" speed="13.89" length="14.40" shape="198.40,-92.80 198.40,-107.20"/>
    </edge>
    <edge id=":J13_2" function="internal">
        <lane id=":J13_2_0" index="0" speed="8.00" length="4.07" shape="198.40,-92.80 198.95,-96.65 199.04,-96.80"/>
    </edge>
    <edge id=":J13_12" function="internal">
        <lane id=":J13_12_0" index="0" speed="8.00" length="10.13" shape="199.04,-96.80 200.60,-99.40 203.35,-101.05 207.20,-101.60"/>
    </edge>
    <edge id=":J13_3" function="internal">
        <lane id=":J13_3_0" index="0" speed="6.51" length="9.03" shape="207.20,-98.40 204.75,-98.05 203.00,-97.00 201.95,-95.25 201.60,-92.80"/>
    </edge>
    <edge id=":J13_4" function="internal">
        <lane id=":J13_4_0" index="0" speed="13.89" length="14.40" shape="207.20,-98.40 192.80,-98.40"/>
    </edge>
    <edge id=":J13_5" function="internal">
        <lane id=":J13_5_0" index="0" speed="8.00" length="14.19" shape="207.20,-98.40 203.35,-98.95 200.60,-100.60 198.95,-103.35 198.40,-107.20"/>
    </edge>
    <edge id=":J13_6" function="internal">
        <lane id=":J13_6_0" index="0" speed="6.51" length="9.03" shape="201.60,-107.20 201.95,-104.75 203.00,-103.00 204.75,-101.95 207.20,-101.60"/>
    </edge>
    <edge id=":J13_7" function="internal">
        <lane id=":J13_7_0" index="0" speed="13.89" length="14.40" shape="201.60,-107.20 201.60,-92.80"/>
    </edge>
    <edge id=":J13_8" function="internal">
        <lane id=":J13_8_0" index="0" speed="8.00" length="4.07" shape="201.60,-107.20 201.05,-103.35 200.96,-103.20"/>
    </edge>
    <edge id=":J13_13" function="internal">
        <lane id=":J13_13_0" index="0" speed="8.00" length="10.13" shape="200.96,-103.20 199.40,-100.60 196.65,-98.95 192.80,-98.40"/>
    </edge>
    <edge id=":J13_9" function="internal">
        <lane id=":J13_9_0" index="0" speed="6.51" length="9.03" shape="192.80,-101.60 195.25,-101.95 197.00,-103.00 198.05,-104.75 198.40,-107.20"/>
    </edge>
    <edge id=":J13_10" function="internal">
        <lane id=":J13_10_0" index="0" speed="13.89" length="14.40" shape="192.80,-101.60 207.20,-101.60"/>
    </edge>
    <edge id=":J13_11" function="internal">
        <lane id=":J13_11_0" index="0" speed="8.00" length="14.19" shape="192.80,-101.60 196.65,-101.05 199.40,-99.40 201.05,-96.65 201.60,-92.80"/>
    </edge>
    <edge id=":J16_0" function="internal">
        <lane id=":J16_0_0" index="0" speed="6.51" length="9.03" shape="-1.60,-192.80 -1.95,-195.25 -3.00,-197.00 -4.75,-198.05 -7.20,-198.40"/>
    </edge>
    <edge id=":J16_1" function="internal">
        <lane id=":J16_1_0" index="0" speed="8.00" length="14.19" shape="-1.60,-192.80 -1.05,-196.65 0.60,-199.40 3.35,-201.05 7.20,-201.60"/>
    </edge>
    <edge id=":J16_2" function="internal">
        <lane id=":J16_2_0" index="0" speed="6.51" length="9.03" shape="7.20,-198.40 4.75,-198.05 3.00,-197.00 1.95,-195.25 1.60,-192.80"/>
    </edge>
    <edge id=":J16_3" function="internal">
        <lane id=":J16_3_0" index="0" speed="13.89" length="14.40" shape="7.20,-198.40 -7.20,-198.40"/>
    </edge>
    <edge id=":J16_4" function="internal">
        <lane id=":J16_4_0" index="0" speed="13.89" length="14.40" shape="-7.20,-201.60 7.20,-201.60"/>
    </edge>
    <edge id=":J16_5" function="internal">
        <lane id=":J16_5_0" index="0" speed="8.00" length="4.07" shape="-7.20,-201.60 -3.35,-201.05 -3.20,-200.96"/>
    </edge>
    <edge id=":J16_6" function="internal">
        <lane id=":J16_6_0" index="0" speed="8.00" length="10.13" shape="-3.20,-200.96 -0.60,-199.40 1.05,-196.65 1.60,-192.80"/>
    </edge>
    <edge id=":J17_0" function="internal">
        <lane id=":J17_0_0" index="0" speed="6.51" length="9.03" shape="98.40,-192.80 98.05,-195.25 97.00,-197.00 95.25,-198.05 92.80,-198.40"/>
    </edge>
    <edge id=":J17_1" function="internal">
        <lane id=":J17_1_0" index="0" speed="8.00" length="14.19" shape="98.40,-192.80 98.95,-196.65 100.60,-199.40 103.35,-201.05 107.20,-201.60"/>
    </edge>
    <edge id=":J17_2" function="internal">
        <lane id=":J17_2_0" index="0" speed="6.51" length="9.03" shape="107.20,-198.40 104.75,-198.05 103.00,-197.00 101.95,-195.25 101.60,-192.80"/>
    </edge>
    <edge id=":J17_3" function="internal">
        <lane id=":J17_3_0" index="0" speed="13.89" length="14.40" shape="107.20,-198.40 92.80,-198.40"/>
    </edge>
    <edge id=":J17_4" function="internal">
        <lane id=":J17_4_0" index="0" speed="13.89" length="14.40" shape="92.80,-201.60 107.20,-201.60"/>
    </edge>
    <edge id=":J17_5" function="internal">
        <lane id=":J17_5_0" index="0" speed="8.00" length="4.07" shape="92.80,-201.60 96.65,-201.05 96.80,-200.96"/>
    </edge>
    <edge id=":J17_6" function="internal">
        <lane id=":J17_6_0" index="0" speed="8.00" length="10.13" shape="96.80,-200.96 99.40,-199.40 101.05,-196.65 101.60,-192.80"/>
    </edge>
    <edge id=":J18_0" function="internal">
        <lane id=":J18_0_0" index="0" speed="6.51" length="9.03" shape="198.40,-192.80 198.05,-195.25 197.00,-197.00 195.25,-198.05 192.80,-198.40"/>
    </edge>
    <edge id=":J18_1" function="internal">
        <lane id=":J18_1_0" index="0" speed="8.00" length="14.19" shape="198.40,-192.80 198.95,-196.65 200.60,-199.40 203.35,-201.05 207.20,-201.60"/>
    </edge>
    <edge id=":J18_2" function="internal">
        <lane id=":J18_2_0" index="0" speed="6.51" length="9.03" shape="207.20,-198.40 204.75,-198.05 203.00,-197.00 201.95,-195.25 201.60,-192.80"/>
    </edge>
    <edge id=":J18_3" function="internal">
        <lane id=":J18_3_0" index="0" speed="13.89" length="14.40" shape="207.20,-198.40 192.80,-198.40"/>
    </edge>
    <edge id=":J18_4" function="internal">
        <lane id=":J18_4_0" index="0" speed="13.89" length="14.40" shape="192.80,-201.60 207.20,-201.60"/>
    </edge>
    <edge id=":J18_5" function="internal">
        <lane id=":J18_5_0" index="0" speed="8.00" length="4.07" shape="192.80,-201.60 196.65,-201.05 196.80,-200.96"/>
    </edge>
    <edge id=":J18_6" function="internal">
        <lane id=":J18_6_0" index="0" speed="8.00" length="10.13" shape="196.80,-200.96 199.40,-199.40 201.05,-196.65 201.60,-192.80"/>
    </edge>
    <edge id=":J4_0" function="internal">
        <lane id=":J4_0_0" index="0" speed="13.89" length="14.40" shape="7.20,101.60 -7.20,101.60"/>
    </edge>
    <edge id=":J4_1" function="internal">
        <lane id=":J4_1_0" index="0" speed="8.00" length="4.07" shape="7.20,101.60 3.35,101.05 3.20,100.96"/>
    </edge>
    <edge id=":J4_6" function="internal">
        <lane id=":J4_6_0" index="0" speed="8.00" length="10.13" shape="3.20,100.96 0.60,99.40 -1.05,96.65 -1.60,92.80"/>
    </edge>
    <edge id=":J4_2" function="internal">
        <lane id=":J4_2_0" index="0" speed="6.51" length="9.03" shape="1.60,92.80 1.95,95.25 3.00,97.00 4.75,98.05 7.20,98.40"/>
    </edge>
    <edge id=":J4_3" function="internal">
        <lane id=":J4_3_0" index="0" speed="8.00" length="14.19" shape="1.60,92.80 1.05,96.65 -0.60,99.40 -3.35,101.05 -7.20,101.60"/>
    </edge>
    <edge id=":J4_4" function="internal">
        <lane id=":J4_4_0" index="0" speed="6.51" length="9.03" shape="-7.20,98.40 -4.75,98.05 -3.00,97.00 -1.95,95.25 -1.60,92.80"/>
    </edge>
    <edge id=":J4_5" function="internal">
        <lane id=":J4_5_0" index="0" speed="13.89" length="14.40" shape="-7.20,98.40 7.20,98.40"/>
    </edge>
    <edge id=":J5_0" function="internal">
        <lane id=":J5_0_0" index="0" speed="13.89" length="14.40" shape="107.20,101.60 92.80,101.60"/>
    </edge>
    <edge id=":J5_1" function="internal">
        <lane id=":J5_1_0" index="0" speed="8.00" length="4.07" shape="107.20,101.60 103.35,101.05 103.20,100.96"/>
    </edge>
    <edge id=":J5_6" function="internal">
        <lane id=":J5_6_0" index="0" speed="8.00" length="10.13" shape="103.20,100.96 100.60,99.40 98.95,96.65 98.40,92.80"/>
    </edge>
    <edge id=":J5_2" function="internal">
        <lane id=":J5_2_0" index="0" speed="6.51" length="9.03" shape="101.60,92.80 101.95,95.25 103.00,97.00 104.75,98.05 107.20,98.40"/>
    </edge>
    <edge id=":J5_3" function="internal">
        <lane id=":J5_3_0" index="0" speed="8.00" length="14.19" shape="101.60,92.80 101.05,96.65 99.40,99.40 96.65,101.05 92.80,101.60"/>
    </edge>
    <edge id=":J5_4" function="internal">
        <lane id=":J5_4_0" index="0" speed="6.51" length="9.03" shape="92.80,98.40 95.25,98.05 97.00,97.00 98.05,95.25 98.40,92.80"/>
    </edge>
    <edge id=":J5_5" function="internal">
        <lane id=":J5_5_0" index="0" speed="13.89" length="14.40" shape="92.80,98.40 107.20,98.40"/>
    </edge>
    <edge id=":J6_0" function="internal">
        <lane id=":J6_0_0" index="0" speed="13.89" length="14.40" shape="207.20,101.60 192.80,101.60"/>
    </edge>
    <edge id=":J6_1" function="internal">
        <lane id=":J6_1_0" index="0" speed="8.00" length="4.07" shape="207.20,101.60 203.35,101.05 203.20,100.96"/>
    </edge>
    <edge id=":J6_6" function="internal">
        <lane id=":J6_6_0" index="0" speed="8.00" length="10.13" shape="203.20,100.96 200.60,99.40 198.95,96.65 198.40,92.80"/>
    </edge>
    <edge id=":J6_2" function="internal">
        <lane id=":J6_2_0" index="0" speed="6.51" length="9.03" shape="201.60,92.80 201.95,95.25 203.00,97.00 204.75,98.05 207.20,98.40"/>
    </edge>
    <edge id=":J6_3" function="internal">
        <lane id=":J6_3_0" index="0" speed="8.00" length="14.19" shape="201.60,92.80 201.05,96.65 199.40,99.40 196.65,101.05 192.80,101.60"/>
    </edge>
    <edge id=":J6_4" function="internal">
        <lane id=":J6_4_0" index="0" speed="6.51" length="9.03" shape="192.80,98.40 195.25,98.05 197.00,97.00 198.05,95.25 198.40,92.80"/>
    </edge>
    <edge id=":J6_5" function="internal">
        <lane id=":J6_5_0" index="0" speed="13.89" length="14.40" shape="192.80,98.40 207.20,98.40"/>
    </edge>
    <edge id=":J7_0" function="internal">
        <lane id=":J7_0_0" index="0" speed="6.51" length="9.03" shape="198.40,7.20 198.05,4.75 197.00,3.00 195.25,1.95 192.80,1.60"/>
    </edge>
    <edge id=":J7_1" function="internal">
        <lane id=":J7_1_0" index="0" speed="13.89" length="14.40" shape="198.40,7.20 198.40,-7.20"/>
    </edge>
    <edge id=":J7_2" function="internal">
        <lane id=":J7_2_0" index="0" speed="8.00" length="4.07" shape="198.40,7.20 198.95,3.35 199.04,3.20"/>
    </edge>
    <edge id=":J7_12" function="internal">
        <lane id=":J7_12_0" index="0" speed="8.00" length="10.13" shape="199.04,3.20 200.60,0.60 203.35,-1.05 207.20,-1.60"/>
    </edge>
    <edge id=":J7_3" function="internal">
        <lane id=":J7_3_0" index="0" speed="6.51" length="9.03" shape="207.20,1.60 204.75,1.95 203.00,3.00 201.95,4.75 201.60,7.20"/>
    </edge>
    <edge id=":J7_4" function="internal">
        <lane id=":J7_4_0" index="0" speed="13.89" length="14.40" shape="207.20,1.60 192.80,1.60"/>
    </edge>
    <edge id=":J7_5" function="internal">
        <lane id=":J7_5_0" index="0" speed="8.00" length="14.19" shape="207.20,1.60 203.35,1.05 200.60,-0.60 198.95,-3.35 198.40,-7.20"/>
    </edge>
    <edge id=":J7_6" function="internal">
        <lane id=":J7_6_0" index="0" speed="6.51" length="9.03" shape="201.60,-7.20 201.95,-4.75 203.00,-3.00 204.75,-1.95 207.20,-1.60"/>
    </edge>
    <edge id=":J7_7" function="internal">
        <lane id=":J7_7_0" index="0" speed="13.89" length="14.40" shape="201.60,-7.20 201.60,7.20"/>
    </edge>
    <edge id=":J7_8" function="internal">
        <lane id=":J7_8_0" index="0" speed="8.00" length="4.07" shape="201.60,-7.20 201.05,-3.35 200.96,-3.20"/>
    </edge>
    <edge id=":J7_13" function="internal">
        <lane id=":J7_13_0" index="0" speed="8.00" length="10.13" shape="200.96,-3.20 199.40,-0.60 196.65,1.05 192.80,1.60"/>
    </edge>
    <edge id=":J7_9" function="internal">
        <lane id=":J7_9_0" index="0" speed="6.51" length="9.03" shape="192.80,-1.60 195.25,-1.95 197.00,-3.00 198.05,-4.75 198.40,-7.20"/>
    </edge>
    <edge id=":J7_10" function="internal">
        <lane id=":J7_10_0" index="0" speed="13.89" length="14.40" shape="192.80,-1.60 207.20,-1.60"/>
    </edge>
    <edge id=":J7_11" function="internal">
        <lane id=":J7_11_0" index="0" speed="8.00" length="14.19" shape="192.80,-1.60 196.65,-1.05 199.40,0.60 201.05,3.35 201.60,7.20"/>
    </edge>

    <edge id="-E0" from="J1" to="J0" priority="-1">
        <lane id="-E0_0" index="0" speed="13.89" length="85.60" shape="92.80,1.60 7.20,1.60"/>
    </edge>
    <edge id="-E1" from="J0" to="J2" priority="-1">
        <lane id="-E1_0" index="0" speed="13.89" length="92.80" shape="-7.20,1.60 -100.00,1.60"/>
    </edge>
    <edge id="-E10" from="J13" to="J12" priority="-1">
        <lane id="-E10_0" index="0" speed="13.89" length="85.60" shape="192.80,-98.40 107.20,-98.40"/>
    </edge>
    <edge id="-E11" from="J14" to="J13" priority="-1">
        <lane id="-E11_0" index="0" speed="13.89" length="92.80" shape="300.00,-98.40 207.20,-98.40"/>
    </edge>
    <edge id="-E12" from="J16" to="J15" priority="-1">
        <lane id="-E12_0" index="0" speed="13.89" length="92.80" shape="-7.20,-198.40 -100.00,-198.40"/>
    </edge>
    <edge id="-E13" from="J17" to="J16" priority="-1">
        <lane id="-E13_0" index="0" speed="13.89" length="85.60" shape="92.80,-198.40 7.20,-198.40"/>
    </edge>
    <edge id="-E14" from="J18" to="J17" priority="-1">
        <lane id="-E14_0" index="0" speed="13.89" length="85.60" shape="192.80,-198.40 107.20,-198.40"/>
    </edge>
    <edge id="-E15" from="J19" to="J18" priority="-1">
        <lane id="-E15_0" index="0" speed="13.89" length="92.80" shape="300.00,-198.40 207.20,-198.40"/>
    </edge>
    <edge id="-E2" from="J4" to="J3" priority="-1">
        <lane id="-E2_0" index="0" speed="13.89" length="92.80" shape="-7.20,101.60 -100.00,101.60"/>
    </edge>
    <edge id="-E3" from="J5" to="J4" priority="-1">
        <lane id="-E3_0" index="0" speed="13.89" length="85.60" shape="92.80,101.60 7.20,101.60"/>
    </edge>
    <edge id="-E31" from="J0" to="J4" priority="-1">
        <lane id="-E31_0" index="0" speed="13.89" length="85.60" shape="1.60,7.20 1.60,92.80"/>
    </edge>
    <edge id="-E32" from="J11" to="J0" priority="-1">
        <lane id="-E32_0" index="0" speed="13.89" length="85.60" shape="1.60,-92.80 1.60,-7.20"/>
    </edge>
    <edge id="-E33" from="J16" to="J11" priority="-1">
        <lane id="-E33_0" index="0" speed="13.89" length="85.60" shape="1.60,-192.80 1.60,-107.20"/>
    </edge>
    <edge id="-E34" from="J1" to="J5" priority="-1">
        <lane id="-E34_0" index="0" speed="13.89" length="85.60" shape="101.60,7.20 101.60,92.80"/>
    </edge>
    <edge id="-E35" from="J12" to="J1" priority="-1">
        <lane id="-E35_0" index="0" speed="13.89" length="85.60" shape="101.60,-92.80 101.60,-7.20"/>
    </edge>
    <edge id="-E36" from="J17" to="J12" priority="-1">
        <lane id="-E36_0" index="0" speed="13.89" length="85.60" shape="101.60,-192.80 101.60,-107.20"/>
    </edge>
    <edge id="-E37" from="J7" to="J6" priority="-1">
        <lane id="-E37_0" index="0" speed="13.89" length="85.60" shape="201.60,7.20 201.60,92.80"/>
    </edge>
    <edge id="-E38" from="J13" to="J7" priority="-1">
        <lane id="-E38_0" index="0" speed="13.89" length="85.60" shape="201.60,-92.80 201.60,-7.20"/>
    </edge>
    <edge id="-E39" from="J18" to="J13" priority="-1">
        <lane id="-E39_0" index="0" speed="13.89" length="85.60" shape="201.60,-192.80 201.60,-107.20"/>
    </edge>
    <edge id="-E4" from="J6" to="J5" priority="-1">
        <lane id="-E4_0" index="0" speed="13.89" length="85.60" shape="192.80,101.60 107.20,101.60"/>
    </edge>
    <edge id="-E5" from="J7" to="J1" priority="-1">
        <lane id="-E5_0" index="0" speed="13.89" length="85.60" shape="192.80,1.60 107.20,1.60"/>
    </edge>
    <edge id="-E6" from="J8" to="J6" priority="-1">
        <lane id="-E6_0" index="0" speed="13.89" length="92.80" shape="300.00,101.60 207.20,101.60"/>
    </edge>
    <edge id="-E7" from="J9" to="J7" priority="-1">
        <lane id="-E7_0" index="0" speed="13.89" length="92.80" shape="300.00,1.60 207.20,1.60"/>
    </edge>
    <edge id="-E8" from="J11" to="J10" priority="-1">
        <lane id="-E8_0" index="0" speed="13.89" length="92.80" shape="-7.20,-98.40 -100.00,-98.40"/>
    </edge>
    <edge id="-E9" from="J12" to="J11" priority="-1">
        <lane id="-E9_0" index="0" speed="13.89" length="85.60" shape="92.80,-98.40 7.20,-98.40"/>
    </edge>
    <edge id="E0" from="J0" to="J1" priority="-1">
        <lane id="E0_0" index="0" speed="13.89" length="85.60" shape="7.20,-1.60 92.80,-1.60"/>
    </edge>
    <edge id="E1" from="J2" to="J0" priority="-1">
        <lane id="E1_0" index="0" speed="13.89" length="92.80" shape="-100.00,-1.60 -7.20,-1.60"/>
    </edge>
    <edge id="E10" from="J12" to="J13" priority="-1">
        <lane id="E10_0" index="0" speed="13.89" length="85.60" shape="107.20,-101.60 192.80,-101.60"/>
    </edge>
    <edge id="E11" from="J13" to="J14" priority="-1">
        <lane id="E11_0" index="0" speed="13.89" length="92.80" shape="207.20,-101.60 300.00,-101.60"/>
    </edge>
    <edge id="E12" from="J15" to="J16" priority="-1">
        <lane id="E12_0" index="0" speed="13.89" length="92.80" shape="-100.00,-201.60 -7.20,-201.60"/>
    </edge>
    <edge id="E13" from="J16" to="J17" priority="-1">
        <lane id="E13_0" index="0" speed="13.89" length="85.60" shape="7.20,-201.60 92.80,-201.60"/>
    </edge>
    <edge id="E14" from="J17" to="J18" priority="-1">
        <lane id="E14_0" index="0" speed="13.89" length="85.60" shape="107.20,-201.60 192.80,-201.60"/>
    </edge>
    <edge id="E15" from="J18" to="J19" priority="-1">
        <lane id="E15_0" index="0" speed="13.89" length="92.80" shape="207.20,-201.60 300.00,-201.60"/>
    </edge>
    <edge id="E2" from="J3" to="J4" priority="-1">
        <lane id="E2_0" index="0" speed="13.89" length="92.80" shape="-100.00,98.40 -7.20,98.40"/>
    </edge>