[General]

network = artery.veins.World
sim-time-limit = 2000s
**.debug = true
**-logLevel = "debug"

*.traci.core.version = -1
*.traci.launcher.typename = "PosixLauncher"
*.traci.launcher.sumocfg = "junction.sumocfg"
*.traci.launcher.sumo = "sumo-gui"

*.node[*].wlan[*].typename = "VanetNic"
*.node[*].wlan[*].radio.channelNumber = 180
*.node[*].wlan[*].radio.carrierFrequency = 5.9 GHz
*.node[*].wlan[*].radio.transmitter.power = 200 mW

*.node[*].middleware.updateInterval = 0.1s
*.node[*].middleware.datetime = "2024-12-12 12:00:00"
*.node[*].middleware.services = xmldoc("services.xml")
*.node[*].middleware.DenService.useCases = xmldoc("den-use-cases.xml")

*.playgroundSizeX = 4000m
*.playgroundSizeY = 4000m
*.playgroundSizeZ = 50m

*.connectionManager.maxInterfDist = 1500m
*.connectionManager.sendDirect = true
*.connectionManager.coreDebug = false

*.node[*].nic.mac1609_4.txPower = 200mW
*.node[*].nic.phy80211p.decider = xmldoc("config.xml")
*.node[*].nic.phy80211p.analogueModels = xmldoc("config.xml")

*.node[*].appl.middleware.updateInterval = 0.1s
*.node[*].appl.middleware.datetime = "2013-06-01 12:35:00"
*.node[*].appl.middleware.services = xmldoc("services.xml")
*.node[*].appl.middleware.DenService.useCases = xmldoc("den-use-cases.xml")