[General]

sim-time-limit = 1000s
*.traci.core.version = -1
*.traci.launcher.typename = "PosixLauncher"
*.traci.launcher.sumocfg = "junction.sumocfg"
*.traci.launcher.sumo = "sumo-gui"

*.node[*].wlan[*].typename = "VanetNic"
*.node[*].wlan[*].radio.channelNumber = 180
*.node[*].wlan[*].radio.carrierFrequency = 5.9 GHz
*.node[*].wlan[*].radio.transmitter.power = 200 mW

*.node[*].middleware.updateInterval = 0.1s
*.node[*].middleware.datetime = "2024-12-12 12:00:00"
*.node[*].middleware.services = xmldoc("services.xml")
*.node[*].middleware.DenService.useCases = xmldoc("usecases.xml")
